file 19989276 1533508079                                        
version 2
run General-2-20180806-00:27:10-1967
attr configname General
attr datetime 20180806-00:27:10
attr experiment General
attr inifile gossipsub.ini
attr iterationvars $0=1000
attr iterationvarsf 1000-
attr measurement $0=1000
attr network sharding.GossipSubNetwork
attr processid 1967
attr repetition 0
attr replication #0
attr resultdir results-gossipsub
attr runnumber 2
attr seedset 2
param *Network.nodeCount 1000
param *Network.gossipRate 10.0Hz
param *Network.nodes[*].source.active true
param *Network.nodes[*].source.startTime 20s
param *Network.nodes[*].source.stopTime 580s
param *Network.nodes[*].lazyNotifier.notificationInterval 0.1s
param *Network.nodes[*].missingTracker.waitTime 2s
param *Network.nodes[*].connectionManager.numRandomNeighbors 5
param *Network.nodes[*].connectionManager.numNearNeighbors 5
param *Network.nodes[*].connectionManager.passiveListSize 20
param *Network.nodes[*].connectionManager.contactNodes "\"0 1 2\""
param *Network.nodes[*].connectionManager.activeHeartbeatInterval 2.0
param *Network.nodes[*].connectionManager.joinTTL 1
param *Network.nodes[*].connectionManager.forwardJoinTTL 1
param *Network.nodes[*].connectionManager.shuffleInterval 2.0
param *Network.nodes[*].connectionManager.activeShufflingSize 5
param *Network.nodes[*].connectionManager.passiveShufflingSize 5
param *Network.nodes[*].connectionManager.shuffleTTL 1

vector 0 GossipSubNetwork.nodes[126].connectionManager passiveListUpdate:vector ETV
vector 1 GossipSubNetwork.nodes[893].connectionManager passiveListUpdate:vector ETV
vector 2 GossipSubNetwork.nodes[699].connectionManager passiveListUpdate:vector ETV
vector 3 GossipSubNetwork.nodes[150].connectionManager passiveListUpdate:vector ETV
vector 4 GossipSubNetwork.nodes[491].connectionManager passiveListUpdate:vector ETV
vector 5 GossipSubNetwork.nodes[541].connectionManager passiveListUpdate:vector ETV
vector 6 GossipSubNetwork.nodes[398].connectionManager passiveListUpdate:vector ETV
vector 7 GossipSubNetwork.nodes[298].connectionManager passiveListUpdate:vector ETV
vector 8 GossipSubNetwork.nodes[155].connectionManager passiveListUpdate:vector ETV
vector 9 GossipSubNetwork.nodes[656].connectionManager passiveListUpdate:vector ETV
vector 10 GossipSubNetwork.nodes[631].connectionManager passiveListUpdate:vector ETV
vector 11 GossipSubNetwork.nodes[760].connectionManager passiveListUpdate:vector ETV
vector 12 GossipSubNetwork.nodes[188].connectionManager passiveListUpdate:vector ETV
vector 13 GossipSubNetwork.nodes[868].connectionManager passiveListUpdate:vector ETV
vector 14 GossipSubNetwork.nodes[467].connectionManager passiveListUpdate:vector ETV
vector 15 GossipSubNetwork.nodes[787].connectionManager passiveListUpdate:vector ETV
vector 16 GossipSubNetwork.nodes[508].connectionManager passiveListUpdate:vector ETV
vector 17 GossipSubNetwork.nodes[766].connectionManager passiveListUpdate:vector ETV
vector 18 GossipSubNetwork.nodes[870].connectionManager passiveListUpdate:vector ETV
vector 19 GossipSubNetwork.nodes[525].connectionManager passiveListUpdate:vector ETV
vector 20 GossipSubNetwork.nodes[659].connectionManager passiveListUpdate:vector ETV
vector 21 GossipSubNetwork.nodes[159].connectionManager passiveListUpdate:vector ETV
vector 22 GossipSubNetwork.nodes[737].connectionManager passiveListUpdate:vector ETV
vector 23 GossipSubNetwork.nodes[895].connectionManager passiveListUpdate:vector ETV
vector 24 GossipSubNetwork.nodes[300].connectionManager passiveListUpdate:vector ETV
vector 25 GossipSubNetwork.nodes[334].connectionManager passiveListUpdate:vector ETV
vector 26 GossipSubNetwork.nodes[720].connectionManager passiveListUpdate:vector ETV
vector 27 GossipSubNetwork.nodes[270].connectionManager passiveListUpdate:vector ETV
vector 28 GossipSubNetwork.nodes[718].connectionManager passiveListUpdate:vector ETV
vector 29 GossipSubNetwork.nodes[924].connectionManager passiveListUpdate:vector ETV
vector 30 GossipSubNetwork.nodes[376].connectionManager passiveListUpdate:vector ETV
vector 31 GossipSubNetwork.nodes[194].connectionManager passiveListUpdate:vector ETV
vector 32 GossipSubNetwork.nodes[975].connectionManager passiveListUpdate:vector ETV
vector 33 GossipSubNetwork.nodes[307].connectionManager passiveListUpdate:vector ETV
vector 34 GossipSubNetwork.nodes[23].connectionManager passiveListUpdate:vector ETV
vector 35 GossipSubNetwork.nodes[286].connectionManager passiveListUpdate:vector ETV
vector 36 GossipSubNetwork.nodes[658].connectionManager passiveListUpdate:vector ETV
vector 37 GossipSubNetwork.nodes[250].connectionManager passiveListUpdate:vector ETV
vector 38 GossipSubNetwork.nodes[618].connectionManager passiveListUpdate:vector ETV
vector 39 GossipSubNetwork.nodes[968].connectionManager passiveListUpdate:vector ETV
vector 40 GossipSubNetwork.nodes[762].connectionManager passiveListUpdate:vector ETV
vector 41 GossipSubNetwork.nodes[381].connectionManager passiveListUpdate:vector ETV
vector 42 GossipSubNetwork.nodes[214].connectionManager passiveListUpdate:vector ETV
vector 43 GossipSubNetwork.nodes[564].connectionManager passiveListUpdate:vector ETV
vector 44 GossipSubNetwork.nodes[634].connectionManager passiveListUpdate:vector ETV
vector 45 GossipSubNetwork.nodes[38].connectionManager passiveListUpdate:vector ETV
vector 46 GossipSubNetwork.nodes[456].connectionManager passiveListUpdate:vector ETV
vector 47 GossipSubNetwork.nodes[224].connectionManager passiveListUpdate:vector ETV
vector 48 GossipSubNetwork.nodes[538].connectionManager passiveListUpdate:vector ETV
vector 49 GossipSubNetwork.nodes[193].connectionManager passiveListUpdate:vector ETV
vector 50 GossipSubNetwork.nodes[795].connectionManager passiveListUpdate:vector ETV
vector 51 GossipSubNetwork.nodes[257].connectionManager passiveListUpdate:vector ETV
vector 52 GossipSubNetwork.nodes[809].connectionManager passiveListUpdate:vector ETV
vector 53 GossipSubNetwork.nodes[855].connectionManager passiveListUpdate:vector ETV
vector 54 GossipSubNetwork.nodes[885].connectionManager passiveListUpdate:vector ETV
vector 55 GossipSubNetwork.nodes[562].connectionManager passiveListUpdate:vector ETV
vector 56 GossipSubNetwork.nodes[547].connectionManager passiveListUpdate:vector ETV
vector 57 GossipSubNetwork.nodes[601].connectionManager passiveListUpdate:vector ETV
vector 58 GossipSubNetwork.nodes[321].connectionManager passiveListUpdate:vector ETV
vector 59 GossipSubNetwork.nodes[892].connectionManager passiveListUpdate:vector ETV
vector 60 GossipSubNetwork.nodes[173].connectionManager passiveListUpdate:vector ETV
vector 61 GossipSubNetwork.nodes[627].connectionManager passiveListUpdate:vector ETV
vector 62 GossipSubNetwork.nodes[537].connectionManager passiveListUpdate:vector ETV
vector 63 GossipSubNetwork.nodes[21].connectionManager passiveListUpdate:vector ETV
vector 64 GossipSubNetwork.nodes[692].connectionManager passiveListUpdate:vector ETV
vector 65 GossipSubNetwork.nodes[715].connectionManager passiveListUpdate:vector ETV
vector 66 GossipSubNetwork.nodes[646].connectionManager passiveListUpdate:vector ETV
vector 67 GossipSubNetwork.nodes[713].connectionManager passiveListUpdate:vector ETV
vector 68 GossipSubNetwork.nodes[77].connectionManager passiveListUpdate:vector ETV
vector 69 GossipSubNetwork.nodes[811].connectionManager passiveListUpdate:vector ETV
vector 70 GossipSubNetwork.nodes[755].connectionManager passiveListUpdate:vector ETV
vector 71 GossipSubNetwork.nodes[550].connectionManager passiveListUpdate:vector ETV
vector 72 GossipSubNetwork.nodes[394].connectionManager passiveListUpdate:vector ETV
vector 73 GossipSubNetwork.nodes[141].connectionManager passiveListUpdate:vector ETV
vector 74 GossipSubNetwork.nodes[860].connectionManager passiveListUpdate:vector ETV
vector 75 GossipSubNetwork.nodes[921].connectionManager passiveListUpdate:vector ETV
vector 76 GossipSubNetwork.nodes[830].connectionManager passiveListUpdate:vector ETV
vector 77 GossipSubNetwork.nodes[910].connectionManager passiveListUpdate:vector ETV
vector 78 GossipSubNetwork.nodes[445].connectionManager passiveListUpdate:vector ETV
vector 79 GossipSubNetwork.nodes[238].connectionManager passiveListUpdate:vector ETV
vector 80 GossipSubNetwork.nodes[81].connectionManager passiveListUpdate:vector ETV
vector 81 GossipSubNetwork.nodes[984].connectionManager passiveListUpdate:vector ETV
vector 82 GossipSubNetwork.nodes[375].connectionManager passiveListUpdate:vector ETV
vector 83 GossipSubNetwork.nodes[736].connectionManager passiveListUpdate:vector ETV
vector 84 GossipSubNetwork.nodes[877].connectionManager passiveListUpdate:vector ETV
vector 85 GossipSubNetwork.nodes[962].connectionManager passiveListUpdate:vector ETV
vector 86 GossipSubNetwork.nodes[272].connectionManager passiveListUpdate:vector ETV
vector 87 GossipSubNetwork.nodes[156].connectionManager passiveListUpdate:vector ETV
vector 88 GossipSubNetwork.nodes[258].connectionManager passiveListUpdate:vector ETV
vector 89 GossipSubNetwork.nodes[414].connectionManager passiveListUpdate:vector ETV
vector 90 GossipSubNetwork.nodes[288].connectionManager passiveListUpdate:vector ETV
vector 91 GossipSubNetwork.nodes[858].connectionManager passiveListUpdate:vector ETV
vector 92 GossipSubNetwork.nodes[960].connectionManager passiveListUpdate:vector ETV
vector 93 GossipSubNetwork.nodes[534].connectionManager passiveListUpdate:vector ETV
vector 94 GossipSubNetwork.nodes[157].connectionManager passiveListUpdate:vector ETV
vector 95 GossipSubNetwork.nodes[213].connectionManager passiveListUpdate:vector ETV
vector 96 GossipSubNetwork.nodes[359].connectionManager passiveListUpdate:vector ETV
vector 97 GossipSubNetwork.nodes[700].connectionManager passiveListUpdate:vector ETV
vector 98 GossipSubNetwork.nodes[203].connectionManager passiveListUpdate:vector ETV
vector 99 GossipSubNetwork.nodes[161].connectionManager passiveListUpdate:vector ETV
vector 100 GossipSubNetwork.nodes[927].connectionManager passiveListUpdate:vector ETV
vector 101 GossipSubNetwork.nodes[106].connectionManager passiveListUpdate:vector ETV
vector 102 GossipSubNetwork.nodes[992].connectionManager passiveListUpdate:vector ETV
vector 103 GossipSubNetwork.nodes[387].connectionManager passiveListUpdate:vector ETV
vector 104 GossipSubNetwork.nodes[94].connectionManager passiveListUpdate:vector ETV
vector 105 GossipSubNetwork.nodes[26].connectionManager passiveListUpdate:vector ETV
vector 106 GossipSubNetwork.nodes[428].connectionManager passiveListUpdate:vector ETV
vector 107 GossipSubNetwork.nodes[330].connectionManager passiveListUpdate:vector ETV
vector 108 GossipSubNetwork.nodes[191].connectionManager passiveListUpdate:vector ETV
vector 109 GossipSubNetwork.nodes[649].connectionManager passiveListUpdate:vector ETV
vector 110 GossipSubNetwork.nodes[263].connectionManager passiveListUpdate:vector ETV
vector 111 GossipSubNetwork.nodes[560].connectionManager passiveListUpdate:vector ETV
vector 112 GossipSubNetwork.nodes[364].connectionManager passiveListUpdate:vector ETV
vector 113 GossipSubNetwork.nodes[650].connectionManager passiveListUpdate:vector ETV
vector 114 GossipSubNetwork.nodes[247].connectionManager passiveListUpdate:vector ETV
vector 115 GossipSubNetwork.nodes[128].connectionManager passiveListUpdate:vector ETV
vector 116 GossipSubNetwork.nodes[849].connectionManager passiveListUpdate:vector ETV
vector 117 GossipSubNetwork.nodes[890].connectionManager passiveListUpdate:vector ETV
vector 118 GossipSubNetwork.nodes[657].connectionManager passiveListUpdate:vector ETV
vector 119 GossipSubNetwork.nodes[5].connectionManager passiveListUpdate:vector ETV
vector 120 GossipSubNetwork.nodes[125].connectionManager passiveListUpdate:vector ETV
vector 121 GossipSubNetwork.nodes[535].connectionManager passiveListUpdate:vector ETV
vector 122 GossipSubNetwork.nodes[320].connectionManager passiveListUpdate:vector ETV
vector 123 GossipSubNetwork.nodes[89].connectionManager passiveListUpdate:vector ETV
vector 124 GossipSubNetwork.nodes[134].connectionManager passiveListUpdate:vector ETV
vector 125 GossipSubNetwork.nodes[521].connectionManager passiveListUpdate:vector ETV
vector 126 GossipSubNetwork.nodes[395].connectionManager passiveListUpdate:vector ETV
vector 127 GossipSubNetwork.nodes[305].connectionManager passiveListUpdate:vector ETV
vector 128 GossipSubNetwork.nodes[498].connectionManager passiveListUpdate:vector ETV
vector 129 GossipSubNetwork.nodes[944].connectionManager passiveListUpdate:vector ETV
vector 130 GossipSubNetwork.nodes[536].connectionManager passiveListUpdate:vector ETV
vector 131 GossipSubNetwork.nodes[264].connectionManager passiveListUpdate:vector ETV
vector 132 GossipSubNetwork.nodes[553].connectionManager passiveListUpdate:vector ETV
vector 133 GossipSubNetwork.nodes[982].connectionManager passiveListUpdate:vector ETV
vector 134 GossipSubNetwork.nodes[253].connectionManager passiveListUpdate:vector ETV
vector 135 GossipSubNetwork.nodes[916].connectionManager passiveListUpdate:vector ETV
vector 136 GossipSubNetwork.nodes[29].connectionManager passiveListUpdate:vector ETV
vector 137 GossipSubNetwork.nodes[522].connectionManager passiveListUpdate:vector ETV
vector 138 GossipSubNetwork.nodes[819].connectionManager passiveListUpdate:vector ETV
vector 139 GossipSubNetwork.nodes[980].connectionManager passiveListUpdate:vector ETV
vector 140 GossipSubNetwork.nodes[681].connectionManager passiveListUpdate:vector ETV
vector 141 GossipSubNetwork.nodes[340].connectionManager passiveListUpdate:vector ETV
vector 142 GossipSubNetwork.nodes[448].connectionManager passiveListUpdate:vector ETV
vector 143 GossipSubNetwork.nodes[606].connectionManager passiveListUpdate:vector ETV
vector 144 GossipSubNetwork.nodes[808].connectionManager passiveListUpdate:vector ETV
vector 145 GossipSubNetwork.nodes[573].connectionManager passiveListUpdate:vector ETV
vector 146 GossipSubNetwork.nodes[567].connectionManager passiveListUpdate:vector ETV
vector 147 GossipSubNetwork.nodes[977].connectionManager passiveListUpdate:vector ETV
vector 148 GossipSubNetwork.nodes[22].connectionManager passiveListUpdate:vector ETV
vector 149 GossipSubNetwork.nodes[336].connectionManager passiveListUpdate:vector ETV
vector 150 GossipSubNetwork.nodes[501].connectionManager passiveListUpdate:vector ETV
vector 151 GossipSubNetwork.nodes[765].connectionManager passiveListUpdate:vector ETV
vector 152 GossipSubNetwork.nodes[212].connectionManager passiveListUpdate:vector ETV
vector 153 GossipSubNetwork.nodes[696].connectionManager passiveListUpdate:vector ETV
vector 154 GossipSubNetwork.nodes[138].connectionManager passiveListUpdate:vector ETV
vector 155 GossipSubNetwork.nodes[496].connectionManager passiveListUpdate:vector ETV
vector 156 GossipSubNetwork.nodes[384].connectionManager passiveListUpdate:vector ETV
vector 157 GossipSubNetwork.nodes[731].connectionManager passiveListUpdate:vector ETV
vector 158 GossipSubNetwork.nodes[951].connectionManager passiveListUpdate:vector ETV
vector 159 GossipSubNetwork.nodes[963].connectionManager passiveListUpdate:vector ETV
vector 160 GossipSubNetwork.nodes[133].connectionManager passiveListUpdate:vector ETV
vector 161 GossipSubNetwork.nodes[600].connectionManager passiveListUpdate:vector ETV
vector 162 GossipSubNetwork.nodes[978].connectionManager passiveListUpdate:vector ETV
vector 163 GossipSubNetwork.nodes[758].connectionManager passiveListUpdate:vector ETV
vector 164 GossipSubNetwork.nodes[528].connectionManager passiveListUpdate:vector ETV
vector 165 GossipSubNetwork.nodes[582].connectionManager passiveListUpdate:vector ETV
vector 166 GossipSubNetwork.nodes[413].connectionManager passiveListUpdate:vector ETV
vector 167 GossipSubNetwork.nodes[139].connectionManager passiveListUpdate:vector ETV
vector 168 GossipSubNetwork.nodes[302].connectionManager passiveListUpdate:vector ETV
vector 169 GossipSubNetwork.nodes[480].connectionManager passiveListUpdate:vector ETV
vector 170 GossipSubNetwork.nodes[889].connectionManager passiveListUpdate:vector ETV
vector 171 GossipSubNetwork.nodes[792].connectionManager passiveListUpdate:vector ETV
vector 172 GossipSubNetwork.nodes[886].connectionManager passiveListUpdate:vector ETV
vector 173 GossipSubNetwork.nodes[297].connectionManager passiveListUpdate:vector ETV
vector 174 GossipSubNetwork.nodes[174].connectionManager passiveListUpdate:vector ETV
vector 175 GossipSubNetwork.nodes[235].connectionManager passiveListUpdate:vector ETV
vector 176 GossipSubNetwork.nodes[722].connectionManager passiveListUpdate:vector ETV
vector 177 GossipSubNetwork.nodes[981].connectionManager passiveListUpdate:vector ETV
vector 178 GossipSubNetwork.nodes[873].connectionManager passiveListUpdate:vector ETV
vector 179 GossipSubNetwork.nodes[882].connectionManager passiveListUpdate:vector ETV
vector 180 GossipSubNetwork.nodes[289].connectionManager passiveListUpdate:vector ETV
vector 181 GossipSubNetwork.nodes[969].connectionManager passiveListUpdate:vector ETV
vector 182 GossipSubNetwork.nodes[244].connectionManager passiveListUpdate:vector ETV
vector 183 GossipSubNetwork.nodes[754].connectionManager passiveListUpdate:vector ETV
vector 184 GossipSubNetwork.nodes[936].connectionManager passiveListUpdate:vector ETV
vector 185 GossipSubNetwork.nodes[853].connectionManager passiveListUpdate:vector ETV
vector 186 GossipSubNetwork.nodes[101].connectionManager passiveListUpdate:vector ETV
vector 187 GossipSubNetwork.nodes[555].connectionManager passiveListUpdate:vector ETV
vector 188 GossipSubNetwork.nodes[788].connectionManager passiveListUpdate:vector ETV
vector 189 GossipSubNetwork.nodes[356].connectionManager passiveListUpdate:vector ETV
vector 190 GossipSubNetwork.nodes[514].connectionManager passiveListUpdate:vector ETV
vector 191 GossipSubNetwork.nodes[661].connectionManager passiveListUpdate:vector ETV
vector 192 GossipSubNetwork.nodes[326].connectionManager passiveListUpdate:vector ETV
vector 193 GossipSubNetwork.nodes[946].connectionManager passiveListUpdate:vector ETV
vector 194 GossipSubNetwork.nodes[24].connectionManager passiveListUpdate:vector ETV
vector 195 GossipSubNetwork.nodes[847].connectionManager passiveListUpdate:vector ETV
vector 196 GossipSubNetwork.nodes[483].connectionManager passiveListUpdate:vector ETV
vector 197 GossipSubNetwork.nodes[609].connectionManager passiveListUpdate:vector ETV
vector 198 GossipSubNetwork.nodes[54].connectionManager passiveListUpdate:vector ETV
vector 199 GossipSubNetwork.nodes[217].connectionManager passiveListUpdate:vector ETV
vector 200 GossipSubNetwork.nodes[695].connectionManager passiveListUpdate:vector ETV
vector 201 GossipSubNetwork.nodes[79].connectionManager passiveListUpdate:vector ETV
vector 202 GossipSubNetwork.nodes[12].connectionManager passiveListUpdate:vector ETV
vector 203 GossipSubNetwork.nodes[863].connectionManager passiveListUpdate:vector ETV
vector 204 GossipSubNetwork.nodes[876].connectionManager passiveListUpdate:vector ETV
vector 205 GossipSubNetwork.nodes[848].connectionManager passiveListUpdate:vector ETV
vector 206 GossipSubNetwork.nodes[798].connectionManager passiveListUpdate:vector ETV
vector 207 GossipSubNetwork.nodes[625].connectionManager passiveListUpdate:vector ETV
vector 208 GossipSubNetwork.nodes[287].connectionManager passiveListUpdate:vector ETV
vector 209 GossipSubNetwork.nodes[114].connectionManager passiveListUpdate:vector ETV
vector 210 GossipSubNetwork.nodes[123].connectionManager passiveListUpdate:vector ETV
vector 211 GossipSubNetwork.nodes[296].connectionManager passiveListUpdate:vector ETV
vector 212 GossipSubNetwork.nodes[237].connectionManager passiveListUpdate:vector ETV
vector 213 GossipSubNetwork.nodes[704].connectionManager passiveListUpdate:vector ETV
vector 214 GossipSubNetwork.nodes[902].connectionManager passiveListUpdate:vector ETV
vector 215 GossipSubNetwork.nodes[43].connectionManager passiveListUpdate:vector ETV
vector 216 GossipSubNetwork.nodes[628].connectionManager passiveListUpdate:vector ETV
vector 217 GossipSubNetwork.nodes[285].connectionManager passiveListUpdate:vector ETV
vector 218 GossipSubNetwork.nodes[768].connectionManager passiveListUpdate:vector ETV
vector 219 GossipSubNetwork.nodes[805].connectionManager passiveListUpdate:vector ETV
vector 220 GossipSubNetwork.nodes[748].connectionManager passiveListUpdate:vector ETV
vector 221 GossipSubNetwork.nodes[926].connectionManager passiveListUpdate:vector ETV
vector 222 GossipSubNetwork.nodes[749].connectionManager passiveListUpdate:vector ETV
vector 223 GossipSubNetwork.nodes[814].connectionManager passiveListUpdate:vector ETV
vector 224 GossipSubNetwork.nodes[559].connectionManager passiveListUpdate:vector ETV
vector 225 GossipSubNetwork.nodes[293].connectionManager passiveListUpdate:vector ETV
vector 226 GossipSubNetwork.nodes[425].connectionManager passiveListUpdate:vector ETV
vector 227 GossipSubNetwork.nodes[548].connectionManager passiveListUpdate:vector ETV
vector 228 GossipSubNetwork.nodes[903].connectionManager passiveListUpdate:vector ETV
vector 229 GossipSubNetwork.nodes[31].connectionManager passiveListUpdate:vector ETV
vector 230 GossipSubNetwork.nodes[633].connectionManager passiveListUpdate:vector ETV
vector 231 GossipSubNetwork.nodes[452].connectionManager passiveListUpdate:vector ETV
vector 232 GossipSubNetwork.nodes[328].connectionManager passiveListUpdate:vector ETV
vector 233 GossipSubNetwork.nodes[693].connectionManager passiveListUpdate:vector ETV
vector 234 GossipSubNetwork.nodes[56].connectionManager passiveListUpdate:vector ETV
vector 235 GossipSubNetwork.nodes[689].connectionManager passiveListUpdate:vector ETV
vector 236 GossipSubNetwork.nodes[844].connectionManager passiveListUpdate:vector ETV
vector 237 GossipSubNetwork.nodes[485].connectionManager passiveListUpdate:vector ETV
vector 238 GossipSubNetwork.nodes[470].connectionManager passiveListUpdate:vector ETV
vector 239 GossipSubNetwork.nodes[91].connectionManager passiveListUpdate:vector ETV
vector 240 GossipSubNetwork.nodes[294].connectionManager passiveListUpdate:vector ETV
vector 241 GossipSubNetwork.nodes[469].connectionManager passiveListUpdate:vector ETV
vector 242 GossipSubNetwork.nodes[510].connectionManager passiveListUpdate:vector ETV
vector 243 GossipSubNetwork.nodes[218].connectionManager passiveListUpdate:vector ETV
vector 244 GossipSubNetwork.nodes[605].connectionManager passiveListUpdate:vector ETV
vector 245 GossipSubNetwork.nodes[440].connectionManager passiveListUpdate:vector ETV
vector 246 GossipSubNetwork.nodes[37].connectionManager passiveListUpdate:vector ETV
vector 247 GossipSubNetwork.nodes[842].connectionManager passiveListUpdate:vector ETV
vector 248 GossipSubNetwork.nodes[129].connectionManager passiveListUpdate:vector ETV
vector 249 GossipSubNetwork.nodes[98].connectionManager passiveListUpdate:vector ETV
vector 250 GossipSubNetwork.nodes[570].connectionManager passiveListUpdate:vector ETV
vector 251 GossipSubNetwork.nodes[654].connectionManager passiveListUpdate:vector ETV
vector 252 GossipSubNetwork.nodes[542].connectionManager passiveListUpdate:vector ETV
vector 253 GossipSubNetwork.nodes[955].connectionManager passiveListUpdate:vector ETV
vector 254 GossipSubNetwork.nodes[527].connectionManager passiveListUpdate:vector ETV
vector 255 GossipSubNetwork.nodes[435].connectionManager passiveListUpdate:vector ETV
vector 256 GossipSubNetwork.nodes[797].connectionManager passiveListUpdate:vector ETV
vector 257 GossipSubNetwork.nodes[274].connectionManager passiveListUpdate:vector ETV
vector 258 GossipSubNetwork.nodes[468].connectionManager passiveListUpdate:vector ETV
vector 259 GossipSubNetwork.nodes[572].connectionManager passiveListUpdate:vector ETV
vector 260 GossipSubNetwork.nodes[484].connectionManager passiveListUpdate:vector ETV
vector 261 GossipSubNetwork.nodes[933].connectionManager passiveListUpdate:vector ETV
vector 262 GossipSubNetwork.nodes[638].connectionManager passiveListUpdate:vector ETV
vector 263 GossipSubNetwork.nodes[41].connectionManager passiveListUpdate:vector ETV
vector 264 GossipSubNetwork.nodes[175].connectionManager passiveListUpdate:vector ETV
vector 265 GossipSubNetwork.nodes[763].connectionManager passiveListUpdate:vector ETV
vector 266 GossipSubNetwork.nodes[64].connectionManager passiveListUpdate:vector ETV
vector 267 GossipSubNetwork.nodes[802].connectionManager passiveListUpdate:vector ETV
vector 268 GossipSubNetwork.nodes[127].connectionManager passiveListUpdate:vector ETV
vector 269 GossipSubNetwork.nodes[149].connectionManager passiveListUpdate:vector ETV
vector 270 GossipSubNetwork.nodes[472].connectionManager passiveListUpdate:vector ETV
vector 271 GossipSubNetwork.nodes[869].connectionManager passiveListUpdate:vector ETV
vector 272 GossipSubNetwork.nodes[546].connectionManager passiveListUpdate:vector ETV
vector 273 GossipSubNetwork.nodes[232].connectionManager passiveListUpdate:vector ETV
vector 274 GossipSubNetwork.nodes[822].connectionManager passiveListUpdate:vector ETV
vector 275 GossipSubNetwork.nodes[672].connectionManager passiveListUpdate:vector ETV
vector 276 GossipSubNetwork.nodes[823].connectionManager passiveListUpdate:vector ETV
vector 277 GossipSubNetwork.nodes[512].connectionManager passiveListUpdate:vector ETV
vector 278 GossipSubNetwork.nodes[329].connectionManager passiveListUpdate:vector ETV
vector 279 GossipSubNetwork.nodes[7].connectionManager passiveListUpdate:vector ETV
vector 280 GossipSubNetwork.nodes[4].connectionManager passiveListUpdate:vector ETV
vector 281 GossipSubNetwork.nodes[75].connectionManager passiveListUpdate:vector ETV
vector 282 GossipSubNetwork.nodes[132].connectionManager passiveListUpdate:vector ETV
vector 283 GossipSubNetwork.nodes[648].connectionManager passiveListUpdate:vector ETV
vector 284 GossipSubNetwork.nodes[930].connectionManager passiveListUpdate:vector ETV
vector 285 GossipSubNetwork.nodes[152].connectionManager passiveListUpdate:vector ETV
vector 286 GossipSubNetwork.nodes[862].connectionManager passiveListUpdate:vector ETV
vector 287 GossipSubNetwork.nodes[604].connectionManager passiveListUpdate:vector ETV
vector 288 GossipSubNetwork.nodes[533].connectionManager passiveListUpdate:vector ETV
vector 289 GossipSubNetwork.nodes[727].connectionManager passiveListUpdate:vector ETV
vector 290 GossipSubNetwork.nodes[668].connectionManager passiveListUpdate:vector ETV
vector 291 GossipSubNetwork.nodes[599].connectionManager passiveListUpdate:vector ETV
vector 292 GossipSubNetwork.nodes[816].connectionManager passiveListUpdate:vector ETV
vector 293 GossipSubNetwork.nodes[519].connectionManager passiveListUpdate:vector ETV
vector 294 GossipSubNetwork.nodes[325].connectionManager passiveListUpdate:vector ETV
vector 295 GossipSubNetwork.nodes[738].connectionManager passiveListUpdate:vector ETV
vector 296 GossipSubNetwork.nodes[338].connectionManager passiveListUpdate:vector ETV
vector 297 GossipSubNetwork.nodes[745].connectionManager passiveListUpdate:vector ETV
vector 298 GossipSubNetwork.nodes[739].connectionManager passiveListUpdate:vector ETV
vector 299 GossipSubNetwork.nodes[454].connectionManager passiveListUpdate:vector ETV
vector 300 GossipSubNetwork.nodes[694].connectionManager passiveListUpdate:vector ETV
vector 301 GossipSubNetwork.nodes[86].connectionManager passiveListUpdate:vector ETV
vector 302 GossipSubNetwork.nodes[204].connectionManager passiveListUpdate:vector ETV
vector 303 GossipSubNetwork.nodes[859].connectionManager passiveListUpdate:vector ETV
vector 304 GossipSubNetwork.nodes[580].connectionManager passiveListUpdate:vector ETV
vector 305 GossipSubNetwork.nodes[680].connectionManager passiveListUpdate:vector ETV
vector 306 GossipSubNetwork.nodes[979].connectionManager passiveListUpdate:vector ETV
vector 307 GossipSubNetwork.nodes[303].connectionManager passiveListUpdate:vector ETV
vector 308 GossipSubNetwork.nodes[55].connectionManager passiveListUpdate:vector ETV
vector 309 GossipSubNetwork.nodes[894].connectionManager passiveListUpdate:vector ETV
vector 310 GossipSubNetwork.nodes[416].connectionManager passiveListUpdate:vector ETV
vector 311 GossipSubNetwork.nodes[148].connectionManager passiveListUpdate:vector ETV
vector 312 GossipSubNetwork.nodes[234].connectionManager passiveListUpdate:vector ETV
vector 313 GossipSubNetwork.nodes[653].connectionManager passiveListUpdate:vector ETV
vector 314 GossipSubNetwork.nodes[172].connectionManager passiveListUpdate:vector ETV
vector 315 GossipSubNetwork.nodes[779].connectionManager passiveListUpdate:vector ETV
vector 316 GossipSubNetwork.nodes[73].connectionManager passiveListUpdate:vector ETV
vector 317 GossipSubNetwork.nodes[613].connectionManager passiveListUpdate:vector ETV
vector 318 GossipSubNetwork.nodes[790].connectionManager passiveListUpdate:vector ETV
vector 319 GossipSubNetwork.nodes[449].connectionManager passiveListUpdate:vector ETV
vector 320 GossipSubNetwork.nodes[8].connectionManager passiveListUpdate:vector ETV
vector 321 GossipSubNetwork.nodes[579].connectionManager passiveListUpdate:vector ETV
vector 322 GossipSubNetwork.nodes[997].connectionManager passiveListUpdate:vector ETV
vector 323 GossipSubNetwork.nodes[674].connectionManager passiveListUpdate:vector ETV
vector 324 GossipSubNetwork.nodes[575].connectionManager passiveListUpdate:vector ETV
vector 325 GossipSubNetwork.nodes[906].connectionManager passiveListUpdate:vector ETV
vector 326 GossipSubNetwork.nodes[177].connectionManager passiveListUpdate:vector ETV
vector 327 GossipSubNetwork.nodes[46].connectionManager passiveListUpdate:vector ETV
vector 328 GossipSubNetwork.nodes[632].connectionManager passiveListUpdate:vector ETV
vector 329 GossipSubNetwork.nodes[487].connectionManager passiveListUpdate:vector ETV
vector 330 GossipSubNetwork.nodes[144].connectionManager passiveListUpdate:vector ETV
vector 331 GossipSubNetwork.nodes[549].connectionManager passiveListUpdate:vector ETV
vector 332 GossipSubNetwork.nodes[443].connectionManager passiveListUpdate:vector ETV
vector 333 GossipSubNetwork.nodes[857].connectionManager passiveListUpdate:vector ETV
vector 334 GossipSubNetwork.nodes[825].connectionManager passiveListUpdate:vector ETV
vector 335 GossipSubNetwork.nodes[28].connectionManager passiveListUpdate:vector ETV
vector 336 GossipSubNetwork.nodes[388].connectionManager passiveListUpdate:vector ETV
vector 337 GossipSubNetwork.nodes[20].connectionManager passiveListUpdate:vector ETV
vector 338 GossipSubNetwork.nodes[140].connectionManager passiveListUpdate:vector ETV
vector 339 GossipSubNetwork.nodes[370].connectionManager passiveListUpdate:vector ETV
vector 340 GossipSubNetwork.nodes[240].connectionManager passiveListUpdate:vector ETV
vector 341 GossipSubNetwork.nodes[365].connectionManager passiveListUpdate:vector ETV
vector 342 GossipSubNetwork.nodes[434].connectionManager passiveListUpdate:vector ETV
vector 343 GossipSubNetwork.nodes[48].connectionManager passiveListUpdate:vector ETV
vector 344 GossipSubNetwork.nodes[506].connectionManager passiveListUpdate:vector ETV
vector 345 GossipSubNetwork.nodes[231].connectionManager passiveListUpdate:vector ETV
vector 346 GossipSubNetwork.nodes[166].connectionManager passiveListUpdate:vector ETV
vector 347 GossipSubNetwork.nodes[119].connectionManager passiveListUpdate:vector ETV
vector 348 GossipSubNetwork.nodes[724].connectionManager passiveListUpdate:vector ETV
vector 349 GossipSubNetwork.nodes[911].connectionManager passiveListUpdate:vector ETV
vector 350 GossipSubNetwork.nodes[474].connectionManager passiveListUpdate:vector ETV
vector 351 GossipSubNetwork.nodes[363].connectionManager passiveListUpdate:vector ETV
vector 352 GossipSubNetwork.nodes[314].connectionManager passiveListUpdate:vector ETV
vector 353 GossipSubNetwork.nodes[382].connectionManager passiveListUpdate:vector ETV
vector 354 GossipSubNetwork.nodes[520].connectionManager passiveListUpdate:vector ETV
vector 355 GossipSubNetwork.nodes[371].connectionManager passiveListUpdate:vector ETV
vector 356 GossipSubNetwork.nodes[942].connectionManager passiveListUpdate:vector ETV
vector 357 GossipSubNetwork.nodes[523].connectionManager passiveListUpdate:vector ETV
vector 358 GossipSubNetwork.nodes[568].connectionManager passiveListUpdate:vector ETV
vector 359 GossipSubNetwork.nodes[834].connectionManager passiveListUpdate:vector ETV
vector 360 GossipSubNetwork.nodes[44].connectionManager passiveListUpdate:vector ETV
vector 361 GossipSubNetwork.nodes[464].connectionManager passiveListUpdate:vector ETV
vector 362 GossipSubNetwork.nodes[771].connectionManager passiveListUpdate:vector ETV
vector 363 GossipSubNetwork.nodes[233].connectionManager passiveListUpdate:vector ETV
vector 364 GossipSubNetwork.nodes[471].connectionManager passiveListUpdate:vector ETV
vector 365 GossipSubNetwork.nodes[846].connectionManager passiveListUpdate:vector ETV
vector 366 GossipSubNetwork.nodes[399].connectionManager passiveListUpdate:vector ETV
vector 367 GossipSubNetwork.nodes[865].connectionManager passiveListUpdate:vector ETV
vector 368 GossipSubNetwork.nodes[447].connectionManager passiveListUpdate:vector ETV
vector 369 GossipSubNetwork.nodes[958].connectionManager passiveListUpdate:vector ETV
vector 370 GossipSubNetwork.nodes[401].connectionManager passiveListUpdate:vector ETV
vector 371 GossipSubNetwork.nodes[72].connectionManager passiveListUpdate:vector ETV
vector 372 GossipSubNetwork.nodes[884].connectionManager passiveListUpdate:vector ETV
vector 373 GossipSubNetwork.nodes[30].connectionManager passiveListUpdate:vector ETV
vector 374 GossipSubNetwork.nodes[587].connectionManager passiveListUpdate:vector ETV
vector 375 GossipSubNetwork.nodes[821].connectionManager passiveListUpdate:vector ETV
vector 376 GossipSubNetwork.nodes[408].connectionManager passiveListUpdate:vector ETV
vector 377 GossipSubNetwork.nodes[577].connectionManager passiveListUpdate:vector ETV
vector 378 GossipSubNetwork.nodes[529].connectionManager passiveListUpdate:vector ETV
vector 379 GossipSubNetwork.nodes[350].connectionManager passiveListUpdate:vector ETV
vector 380 GossipSubNetwork.nodes[995].connectionManager passiveListUpdate:vector ETV
vector 381 GossipSubNetwork.nodes[147].connectionManager passiveListUpdate:vector ETV
vector 382 GossipSubNetwork.nodes[415].connectionManager passiveListUpdate:vector ETV
vector 383 GossipSubNetwork.nodes[400].connectionManager passiveListUpdate:vector ETV
vector 384 GossipSubNetwork.nodes[971].connectionManager passiveListUpdate:vector ETV
vector 385 GossipSubNetwork.nodes[315].connectionManager passiveListUpdate:vector ETV
vector 386 GossipSubNetwork.nodes[65].connectionManager passiveListUpdate:vector ETV
vector 387 GossipSubNetwork.nodes[932].connectionManager passiveListUpdate:vector ETV
vector 388 GossipSubNetwork.nodes[629].connectionManager passiveListUpdate:vector ETV
vector 389 GossipSubNetwork.nodes[171].connectionManager passiveListUpdate:vector ETV
vector 390 GossipSubNetwork.nodes[353].connectionManager passiveListUpdate:vector ETV
vector 391 GossipSubNetwork.nodes[495].connectionManager passiveListUpdate:vector ETV
vector 392 GossipSubNetwork.nodes[563].connectionManager passiveListUpdate:vector ETV
vector 393 GossipSubNetwork.nodes[189].connectionManager passiveListUpdate:vector ETV
vector 394 GossipSubNetwork.nodes[259].connectionManager passiveListUpdate:vector ETV
vector 395 GossipSubNetwork.nodes[757].connectionManager passiveListUpdate:vector ETV
vector 396 GossipSubNetwork.nodes[989].connectionManager passiveListUpdate:vector ETV
vector 397 GossipSubNetwork.nodes[397].connectionManager passiveListUpdate:vector ETV
vector 398 GossipSubNetwork.nodes[369].connectionManager passiveListUpdate:vector ETV
vector 399 GossipSubNetwork.nodes[411].connectionManager passiveListUpdate:vector ETV
vector 400 GossipSubNetwork.nodes[588].connectionManager passiveListUpdate:vector ETV
vector 401 GossipSubNetwork.nodes[615].connectionManager passiveListUpdate:vector ETV
vector 402 GossipSubNetwork.nodes[976].connectionManager passiveListUpdate:vector ETV
vector 403 GossipSubNetwork.nodes[961].connectionManager passiveListUpdate:vector ETV
vector 404 GossipSubNetwork.nodes[332].connectionManager passiveListUpdate:vector ETV
vector 405 GossipSubNetwork.nodes[898].connectionManager passiveListUpdate:vector ETV
vector 406 GossipSubNetwork.nodes[616].connectionManager passiveListUpdate:vector ETV
vector 407 GossipSubNetwork.nodes[154].connectionManager passiveListUpdate:vector ETV
vector 408 GossipSubNetwork.nodes[331].connectionManager passiveListUpdate:vector ETV
vector 409 GossipSubNetwork.nodes[27].connectionManager passiveListUpdate:vector ETV
vector 410 GossipSubNetwork.nodes[360].connectionManager passiveListUpdate:vector ETV
vector 411 GossipSubNetwork.nodes[540].connectionManager passiveListUpdate:vector ETV
vector 412 GossipSubNetwork.nodes[71].connectionManager passiveListUpdate:vector ETV
vector 413 GossipSubNetwork.nodes[163].connectionManager passiveListUpdate:vector ETV
vector 414 GossipSubNetwork.nodes[801].connectionManager passiveListUpdate:vector ETV
vector 415 GossipSubNetwork.nodes[219].connectionManager passiveListUpdate:vector ETV
vector 416 GossipSubNetwork.nodes[641].connectionManager passiveListUpdate:vector ETV
vector 417 GossipSubNetwork.nodes[200].connectionManager passiveListUpdate:vector ETV
vector 418 GossipSubNetwork.nodes[676].connectionManager passiveListUpdate:vector ETV
vector 419 GossipSubNetwork.nodes[323].connectionManager passiveListUpdate:vector ETV
vector 420 GossipSubNetwork.nodes[972].connectionManager passiveListUpdate:vector ETV
vector 421 GossipSubNetwork.nodes[499].connectionManager passiveListUpdate:vector ETV
vector 422 GossipSubNetwork.nodes[419].connectionManager passiveListUpdate:vector ETV
vector 423 GossipSubNetwork.nodes[687].connectionManager passiveListUpdate:vector ETV
vector 424 GossipSubNetwork.nodes[442].connectionManager passiveListUpdate:vector ETV
vector 425 GossipSubNetwork.nodes[552].connectionManager passiveListUpdate:vector ETV
vector 426 GossipSubNetwork.nodes[354].connectionManager passiveListUpdate:vector ETV
vector 427 GossipSubNetwork.nodes[239].connectionManager passiveListUpdate:vector ETV
vector 428 GossipSubNetwork.nodes[458].connectionManager passiveListUpdate:vector ETV
vector 429 GossipSubNetwork.nodes[9].connectionManager passiveListUpdate:vector ETV
vector 430 GossipSubNetwork.nodes[109].connectionManager passiveListUpdate:vector ETV
vector 431 GossipSubNetwork.nodes[597].connectionManager passiveListUpdate:vector ETV
vector 432 GossipSubNetwork.nodes[17].connectionManager passiveListUpdate:vector ETV
vector 433 GossipSubNetwork.nodes[829].connectionManager passiveListUpdate:vector ETV
vector 434 GossipSubNetwork.nodes[229].connectionManager passiveListUpdate:vector ETV
vector 435 GossipSubNetwork.nodes[6].connectionManager passiveListUpdate:vector ETV
vector 436 GossipSubNetwork.nodes[14].connectionManager passiveListUpdate:vector ETV
vector 437 GossipSubNetwork.nodes[557].connectionManager passiveListUpdate:vector ETV
vector 438 GossipSubNetwork.nodes[104].connectionManager passiveListUpdate:vector ETV
vector 439 GossipSubNetwork.nodes[845].connectionManager passiveListUpdate:vector ETV
vector 440 GossipSubNetwork.nodes[420].connectionManager passiveListUpdate:vector ETV
vector 441 GossipSubNetwork.nodes[619].connectionManager passiveListUpdate:vector ETV
vector 442 GossipSubNetwork.nodes[872].connectionManager passiveListUpdate:vector ETV
vector 443 GossipSubNetwork.nodes[703].connectionManager passiveListUpdate:vector ETV
vector 444 GossipSubNetwork.nodes[168].connectionManager passiveListUpdate:vector ETV
vector 445 GossipSubNetwork.nodes[603].connectionManager passiveListUpdate:vector ETV
vector 446 GossipSubNetwork.nodes[105].connectionManager passiveListUpdate:vector ETV
vector 447 GossipSubNetwork.nodes[318].connectionManager passiveListUpdate:vector ETV
vector 448 GossipSubNetwork.nodes[800].connectionManager passiveListUpdate:vector ETV
vector 449 GossipSubNetwork.nodes[276].connectionManager passiveListUpdate:vector ETV
vector 450 GossipSubNetwork.nodes[282].connectionManager passiveListUpdate:vector ETV
vector 451 GossipSubNetwork.nodes[714].connectionManager passiveListUpdate:vector ETV
vector 452 GossipSubNetwork.nodes[424].connectionManager passiveListUpdate:vector ETV
vector 453 GossipSubNetwork.nodes[592].connectionManager passiveListUpdate:vector ETV
vector 454 GossipSubNetwork.nodes[705].connectionManager passiveListUpdate:vector ETV
vector 455 GossipSubNetwork.nodes[3].connectionManager passiveListUpdate:vector ETV
vector 456 GossipSubNetwork.nodes[770].connectionManager passiveListUpdate:vector ETV
vector 457 GossipSubNetwork.nodes[254].connectionManager passiveListUpdate:vector ETV
vector 458 GossipSubNetwork.nodes[775].connectionManager passiveListUpdate:vector ETV
vector 459 GossipSubNetwork.nodes[673].connectionManager passiveListUpdate:vector ETV
vector 460 GossipSubNetwork.nodes[917].connectionManager passiveListUpdate:vector ETV
vector 461 GossipSubNetwork.nodes[711].connectionManager passiveListUpdate:vector ETV
vector 462 GossipSubNetwork.nodes[923].connectionManager passiveListUpdate:vector ETV
vector 463 GossipSubNetwork.nodes[386].connectionManager passiveListUpdate:vector ETV
vector 464 GossipSubNetwork.nodes[590].connectionManager passiveListUpdate:vector ETV
vector 465 GossipSubNetwork.nodes[918].connectionManager passiveListUpdate:vector ETV
vector 466 GossipSubNetwork.nodes[310].connectionManager passiveListUpdate:vector ETV
vector 467 GossipSubNetwork.nodes[393].connectionManager passiveListUpdate:vector ETV
vector 468 GossipSubNetwork.nodes[913].connectionManager passiveListUpdate:vector ETV
vector 469 GossipSubNetwork.nodes[786].connectionManager passiveListUpdate:vector ETV
vector 470 GossipSubNetwork.nodes[143].connectionManager passiveListUpdate:vector ETV
vector 471 GossipSubNetwork.nodes[261].connectionManager passiveListUpdate:vector ETV
vector 472 GossipSubNetwork.nodes[623].connectionManager passiveListUpdate:vector ETV
vector 473 GossipSubNetwork.nodes[390].connectionManager passiveListUpdate:vector ETV
vector 474 GossipSubNetwork.nodes[339].connectionManager passiveListUpdate:vector ETV
vector 475 GossipSubNetwork.nodes[450].connectionManager passiveListUpdate:vector ETV
vector 476 GossipSubNetwork.nodes[934].connectionManager passiveListUpdate:vector ETV
vector 477 GossipSubNetwork.nodes[725].connectionManager passiveListUpdate:vector ETV
vector 478 GossipSubNetwork.nodes[810].connectionManager passiveListUpdate:vector ETV
vector 479 GossipSubNetwork.nodes[120].connectionManager passiveListUpdate:vector ETV
vector 480 GossipSubNetwork.nodes[985].connectionManager passiveListUpdate:vector ETV
vector 481 GossipSubNetwork.nodes[266].connectionManager passiveListUpdate:vector ETV
vector 482 GossipSubNetwork.nodes[343].connectionManager passiveListUpdate:vector ETV
vector 483 GossipSubNetwork.nodes[959].connectionManager passiveListUpdate:vector ETV
vector 484 GossipSubNetwork.nodes[624].connectionManager passiveListUpdate:vector ETV
vector 485 GossipSubNetwork.nodes[666].connectionManager passiveListUpdate:vector ETV
vector 486 GossipSubNetwork.nodes[446].connectionManager passiveListUpdate:vector ETV
vector 487 GossipSubNetwork.nodes[407].connectionManager passiveListUpdate:vector ETV
vector 488 GossipSubNetwork.nodes[688].connectionManager passiveListUpdate:vector ETV
vector 489 GossipSubNetwork.nodes[295].connectionManager passiveListUpdate:vector ETV
vector 490 GossipSubNetwork.nodes[578].connectionManager passiveListUpdate:vector ETV
vector 491 GossipSubNetwork.nodes[476].connectionManager passiveListUpdate:vector ETV
vector 492 GossipSubNetwork.nodes[57].connectionManager passiveListUpdate:vector ETV
vector 493 GossipSubNetwork.nodes[940].connectionManager passiveListUpdate:vector ETV
vector 494 GossipSubNetwork.nodes[1].connectionManager passiveListUpdate:vector ETV
vector 495 GossipSubNetwork.nodes[0].connectionManager passiveListUpdate:vector ETV
vector 496 GossipSubNetwork.nodes[69].connectionManager passiveListUpdate:vector ETV
vector 497 GossipSubNetwork.nodes[938].connectionManager passiveListUpdate:vector ETV
vector 498 GossipSubNetwork.nodes[789].connectionManager passiveListUpdate:vector ETV
vector 499 GossipSubNetwork.nodes[221].connectionManager passiveListUpdate:vector ETV
vector 500 GossipSubNetwork.nodes[124].connectionManager passiveListUpdate:vector ETV
vector 501 GossipSubNetwork.nodes[908].connectionManager passiveListUpdate:vector ETV
vector 502 GossipSubNetwork.nodes[242].connectionManager passiveListUpdate:vector ETV
vector 503 GossipSubNetwork.nodes[151].connectionManager passiveListUpdate:vector ETV
vector 504 GossipSubNetwork.nodes[824].connectionManager passiveListUpdate:vector ETV
vector 505 GossipSubNetwork.nodes[707].connectionManager passiveListUpdate:vector ETV
vector 506 GossipSubNetwork.nodes[883].connectionManager passiveListUpdate:vector ETV
vector 507 GossipSubNetwork.nodes[589].connectionManager passiveListUpdate:vector ETV
vector 508 GossipSubNetwork.nodes[225].connectionManager passiveListUpdate:vector ETV
vector 509 GossipSubNetwork.nodes[500].connectionManager passiveListUpdate:vector ETV
vector 510 GossipSubNetwork.nodes[130].connectionManager passiveListUpdate:vector ETV
vector 511 GossipSubNetwork.nodes[622].connectionManager passiveListUpdate:vector ETV
vector 512 GossipSubNetwork.nodes[351].connectionManager passiveListUpdate:vector ETV
vector 513 GossipSubNetwork.nodes[417].connectionManager passiveListUpdate:vector ETV
vector 514 GossipSubNetwork.nodes[227].connectionManager passiveListUpdate:vector ETV
vector 515 GossipSubNetwork.nodes[121].connectionManager passiveListUpdate:vector ETV
vector 516 GossipSubNetwork.nodes[717].connectionManager passiveListUpdate:vector ETV
vector 517 GossipSubNetwork.nodes[366].connectionManager passiveListUpdate:vector ETV
vector 518 GossipSubNetwork.nodes[67].connectionManager passiveListUpdate:vector ETV
vector 519 GossipSubNetwork.nodes[964].connectionManager passiveListUpdate:vector ETV
vector 520 GossipSubNetwork.nodes[439].connectionManager passiveListUpdate:vector ETV
vector 521 GossipSubNetwork.nodes[957].connectionManager passiveListUpdate:vector ETV
vector 522 GossipSubNetwork.nodes[361].connectionManager passiveListUpdate:vector ETV
vector 523 GossipSubNetwork.nodes[475].connectionManager passiveListUpdate:vector ETV
vector 524 GossipSubNetwork.nodes[729].connectionManager passiveListUpdate:vector ETV
vector 525 GossipSubNetwork.nodes[812].connectionManager passiveListUpdate:vector ETV
vector 526 GossipSubNetwork.nodes[698].connectionManager passiveListUpdate:vector ETV
vector 527 GossipSubNetwork.nodes[614].connectionManager passiveListUpdate:vector ETV
vector 528 GossipSubNetwork.nodes[686].connectionManager passiveListUpdate:vector ETV
vector 529 GossipSubNetwork.nodes[831].connectionManager passiveListUpdate:vector ETV
vector 530 GossipSubNetwork.nodes[406].connectionManager passiveListUpdate:vector ETV
vector 531 GossipSubNetwork.nodes[866].connectionManager passiveListUpdate:vector ETV
vector 532 GossipSubNetwork.nodes[854].connectionManager passiveListUpdate:vector ETV
vector 533 GossipSubNetwork.nodes[796].connectionManager passiveListUpdate:vector ETV
vector 534 GossipSubNetwork.nodes[915].connectionManager passiveListUpdate:vector ETV
vector 535 GossipSubNetwork.nodes[402].connectionManager passiveListUpdate:vector ETV
vector 536 GossipSubNetwork.nodes[637].connectionManager passiveListUpdate:vector ETV
vector 537 GossipSubNetwork.nodes[974].connectionManager passiveListUpdate:vector ETV
vector 538 GossipSubNetwork.nodes[202].connectionManager passiveListUpdate:vector ETV
vector 539 GossipSubNetwork.nodes[744].connectionManager passiveListUpdate:vector ETV
vector 540 GossipSubNetwork.nodes[35].connectionManager passiveListUpdate:vector ETV
vector 541 GossipSubNetwork.nodes[532].connectionManager passiveListUpdate:vector ETV
vector 542 GossipSubNetwork.nodes[820].connectionManager passiveListUpdate:vector ETV
vector 543 GossipSubNetwork.nodes[664].connectionManager passiveListUpdate:vector ETV
vector 544 GossipSubNetwork.nodes[327].connectionManager passiveListUpdate:vector ETV
vector 545 GossipSubNetwork.nodes[478].connectionManager passiveListUpdate:vector ETV
vector 546 GossipSubNetwork.nodes[78].connectionManager passiveListUpdate:vector ETV
vector 547 GossipSubNetwork.nodes[418].connectionManager passiveListUpdate:vector ETV
vector 548 GossipSubNetwork.nodes[183].connectionManager passiveListUpdate:vector ETV
vector 549 GossipSubNetwork.nodes[479].connectionManager passiveListUpdate:vector ETV
vector 550 GossipSubNetwork.nodes[180].connectionManager passiveListUpdate:vector ETV
vector 551 GossipSubNetwork.nodes[856].connectionManager passiveListUpdate:vector ETV
vector 552 GossipSubNetwork.nodes[117].connectionManager passiveListUpdate:vector ETV
vector 553 GossipSubNetwork.nodes[881].connectionManager passiveListUpdate:vector ETV
vector 554 GossipSubNetwork.nodes[195].connectionManager passiveListUpdate:vector ETV
vector 555 GossipSubNetwork.nodes[374].connectionManager passiveListUpdate:vector ETV
vector 556 GossipSubNetwork.nodes[636].connectionManager passiveListUpdate:vector ETV
vector 557 GossipSubNetwork.nodes[18].connectionManager passiveListUpdate:vector ETV
vector 558 GossipSubNetwork.nodes[385].connectionManager passiveListUpdate:vector ETV
vector 559 GossipSubNetwork.nodes[430].connectionManager passiveListUpdate:vector ETV
vector 560 GossipSubNetwork.nodes[973].connectionManager passiveListUpdate:vector ETV
vector 561 GossipSubNetwork.nodes[489].connectionManager passiveListUpdate:vector ETV
vector 562 GossipSubNetwork.nodes[630].connectionManager passiveListUpdate:vector ETV
vector 563 GossipSubNetwork.nodes[875].connectionManager passiveListUpdate:vector ETV
vector 564 GossipSubNetwork.nodes[352].connectionManager passiveListUpdate:vector ETV
vector 565 GossipSubNetwork.nodes[851].connectionManager passiveListUpdate:vector ETV
vector 566 GossipSubNetwork.nodes[51].connectionManager passiveListUpdate:vector ETV
vector 567 GossipSubNetwork.nodes[357].connectionManager passiveListUpdate:vector ETV
vector 568 GossipSubNetwork.nodes[566].connectionManager passiveListUpdate:vector ETV
vector 569 GossipSubNetwork.nodes[255].connectionManager passiveListUpdate:vector ETV
vector 570 GossipSubNetwork.nodes[990].connectionManager passiveListUpdate:vector ETV
vector 571 GossipSubNetwork.nodes[346].connectionManager passiveListUpdate:vector ETV
vector 572 GossipSubNetwork.nodes[410].connectionManager passiveListUpdate:vector ETV
vector 573 GossipSubNetwork.nodes[983].connectionManager passiveListUpdate:vector ETV
vector 574 GossipSubNetwork.nodes[15].connectionManager passiveListUpdate:vector ETV
vector 575 GossipSubNetwork.nodes[404].connectionManager passiveListUpdate:vector ETV
vector 576 GossipSubNetwork.nodes[888].connectionManager passiveListUpdate:vector ETV
vector 577 GossipSubNetwork.nodes[815].connectionManager passiveListUpdate:vector ETV
vector 578 GossipSubNetwork.nodes[19].connectionManager passiveListUpdate:vector ETV
vector 579 GossipSubNetwork.nodes[403].connectionManager passiveListUpdate:vector ETV
vector 580 GossipSubNetwork.nodes[301].connectionManager passiveListUpdate:vector ETV
vector 581 GossipSubNetwork.nodes[644].connectionManager passiveListUpdate:vector ETV
vector 582 GossipSubNetwork.nodes[679].connectionManager passiveListUpdate:vector ETV
vector 583 GossipSubNetwork.nodes[162].connectionManager passiveListUpdate:vector ETV
vector 584 GossipSubNetwork.nodes[752].connectionManager passiveListUpdate:vector ETV
vector 585 GossipSubNetwork.nodes[481].connectionManager passiveListUpdate:vector ETV
vector 586 GossipSubNetwork.nodes[306].connectionManager passiveListUpdate:vector ETV
vector 587 GossipSubNetwork.nodes[891].connectionManager passiveListUpdate:vector ETV
vector 588 GossipSubNetwork.nodes[291].connectionManager passiveListUpdate:vector ETV
vector 589 GossipSubNetwork.nodes[861].connectionManager passiveListUpdate:vector ETV
vector 590 GossipSubNetwork.nodes[837].connectionManager passiveListUpdate:vector ETV
vector 591 GossipSubNetwork.nodes[702].connectionManager passiveListUpdate:vector ETV
vector 592 GossipSubNetwork.nodes[941].connectionManager passiveListUpdate:vector ETV
vector 593 GossipSubNetwork.nodes[373].connectionManager passiveListUpdate:vector ETV
vector 594 GossipSubNetwork.nodes[871].connectionManager passiveListUpdate:vector ETV
vector 595 GossipSubNetwork.nodes[262].connectionManager passiveListUpdate:vector ETV
vector 596 GossipSubNetwork.nodes[799].connectionManager passiveListUpdate:vector ETV
vector 597 GossipSubNetwork.nodes[952].connectionManager passiveListUpdate:vector ETV
vector 598 GossipSubNetwork.nodes[131].connectionManager passiveListUpdate:vector ETV
vector 599 GossipSubNetwork.nodes[167].connectionManager passiveListUpdate:vector ETV
vector 600 GossipSubNetwork.nodes[493].connectionManager passiveListUpdate:vector ETV
vector 601 GossipSubNetwork.nodes[146].connectionManager passiveListUpdate:vector ETV
vector 602 GossipSubNetwork.nodes[236].connectionManager passiveListUpdate:vector ETV
vector 603 GossipSubNetwork.nodes[308].connectionManager passiveListUpdate:vector ETV
vector 604 GossipSubNetwork.nodes[850].connectionManager passiveListUpdate:vector ETV
vector 605 GossipSubNetwork.nodes[780].connectionManager passiveListUpdate:vector ETV
vector 606 GossipSubNetwork.nodes[728].connectionManager passiveListUpdate:vector ETV
vector 607 GossipSubNetwork.nodes[669].connectionManager passiveListUpdate:vector ETV
vector 608 GossipSubNetwork.nodes[929].connectionManager passiveListUpdate:vector ETV
vector 609 GossipSubNetwork.nodes[683].connectionManager passiveListUpdate:vector ETV
vector 610 GossipSubNetwork.nodes[215].connectionManager passiveListUpdate:vector ETV
vector 611 GossipSubNetwork.nodes[251].connectionManager passiveListUpdate:vector ETV
vector 612 GossipSubNetwork.nodes[793].connectionManager passiveListUpdate:vector ETV
vector 613 GossipSubNetwork.nodes[342].connectionManager passiveListUpdate:vector ETV
vector 614 GossipSubNetwork.nodes[701].connectionManager passiveListUpdate:vector ETV
vector 615 GossipSubNetwork.nodes[841].connectionManager passiveListUpdate:vector ETV
vector 616 GossipSubNetwork.nodes[13].connectionManager passiveListUpdate:vector ETV
vector 617 GossipSubNetwork.nodes[517].connectionManager passiveListUpdate:vector ETV
vector 618 GossipSubNetwork.nodes[205].connectionManager passiveListUpdate:vector ETV
vector 619 GossipSubNetwork.nodes[486].connectionManager passiveListUpdate:vector ETV
vector 620 GossipSubNetwork.nodes[349].connectionManager passiveListUpdate:vector ETV
vector 621 GossipSubNetwork.nodes[874].connectionManager passiveListUpdate:vector ETV
vector 622 GossipSubNetwork.nodes[708].connectionManager passiveListUpdate:vector ETV
vector 623 GossipSubNetwork.nodes[380].connectionManager passiveListUpdate:vector ETV
vector 624 GossipSubNetwork.nodes[761].connectionManager passiveListUpdate:vector ETV
vector 625 GossipSubNetwork.nodes[76].connectionManager passiveListUpdate:vector ETV
vector 626 GossipSubNetwork.nodes[341].connectionManager passiveListUpdate:vector ETV
vector 627 GossipSubNetwork.nodes[460].connectionManager passiveListUpdate:vector ETV
vector 628 GossipSubNetwork.nodes[267].connectionManager passiveListUpdate:vector ETV
vector 629 GossipSubNetwork.nodes[421].connectionManager passiveListUpdate:vector ETV
vector 630 GossipSubNetwork.nodes[662].connectionManager passiveListUpdate:vector ETV
vector 631 GossipSubNetwork.nodes[477].connectionManager passiveListUpdate:vector ETV
vector 632 GossipSubNetwork.nodes[583].connectionManager passiveListUpdate:vector ETV
vector 633 GossipSubNetwork.nodes[158].connectionManager passiveListUpdate:vector ETV
vector 634 GossipSubNetwork.nodes[66].connectionManager passiveListUpdate:vector ETV
vector 635 GossipSubNetwork.nodes[265].connectionManager passiveListUpdate:vector ETV
vector 636 GossipSubNetwork.nodes[136].connectionManager passiveListUpdate:vector ETV
vector 637 GossipSubNetwork.nodes[441].connectionManager passiveListUpdate:vector ETV
vector 638 GossipSubNetwork.nodes[531].connectionManager passiveListUpdate:vector ETV
vector 639 GossipSubNetwork.nodes[118].connectionManager passiveListUpdate:vector ETV
vector 640 GossipSubNetwork.nodes[63].connectionManager passiveListUpdate:vector ETV
vector 641 GossipSubNetwork.nodes[794].connectionManager passiveListUpdate:vector ETV
vector 642 GossipSubNetwork.nodes[137].connectionManager passiveListUpdate:vector ETV
vector 643 GossipSubNetwork.nodes[281].connectionManager passiveListUpdate:vector ETV
vector 644 GossipSubNetwork.nodes[925].connectionManager passiveListUpdate:vector ETV
vector 645 GossipSubNetwork.nodes[835].connectionManager passiveListUpdate:vector ETV
vector 646 GossipSubNetwork.nodes[710].connectionManager passiveListUpdate:vector ETV
vector 647 GossipSubNetwork.nodes[494].connectionManager passiveListUpdate:vector ETV
vector 648 GossipSubNetwork.nodes[311].connectionManager passiveListUpdate:vector ETV
vector 649 GossipSubNetwork.nodes[222].connectionManager passiveListUpdate:vector ETV
vector 650 GossipSubNetwork.nodes[896].connectionManager passiveListUpdate:vector ETV
vector 651 GossipSubNetwork.nodes[516].connectionManager passiveListUpdate:vector ETV
vector 652 GossipSubNetwork.nodes[185].connectionManager passiveListUpdate:vector ETV
vector 653 GossipSubNetwork.nodes[241].connectionManager passiveListUpdate:vector ETV
vector 654 GossipSubNetwork.nodes[986].connectionManager passiveListUpdate:vector ETV
vector 655 GossipSubNetwork.nodes[433].connectionManager passiveListUpdate:vector ETV
vector 656 GossipSubNetwork.nodes[160].connectionManager passiveListUpdate:vector ETV
vector 657 GossipSubNetwork.nodes[743].connectionManager passiveListUpdate:vector ETV
vector 658 GossipSubNetwork.nodes[438].connectionManager passiveListUpdate:vector ETV
vector 659 GossipSubNetwork.nodes[813].connectionManager passiveListUpdate:vector ETV
vector 660 GossipSubNetwork.nodes[256].connectionManager passiveListUpdate:vector ETV
vector 661 GossipSubNetwork.nodes[685].connectionManager passiveListUpdate:vector ETV
vector 662 GossipSubNetwork.nodes[176].connectionManager passiveListUpdate:vector ETV
vector 663 GossipSubNetwork.nodes[751].connectionManager passiveListUpdate:vector ETV
vector 664 GossipSubNetwork.nodes[723].connectionManager passiveListUpdate:vector ETV
vector 665 GossipSubNetwork.nodes[994].connectionManager passiveListUpdate:vector ETV
vector 666 GossipSubNetwork.nodes[645].connectionManager passiveListUpdate:vector ETV
vector 667 GossipSubNetwork.nodes[83].connectionManager passiveListUpdate:vector ETV
vector 668 GossipSubNetwork.nodes[665].connectionManager passiveListUpdate:vector ETV
vector 669 GossipSubNetwork.nodes[998].connectionManager passiveListUpdate:vector ETV
vector 670 GossipSubNetwork.nodes[181].connectionManager passiveListUpdate:vector ETV
vector 671 GossipSubNetwork.nodes[110].connectionManager passiveListUpdate:vector ETV
vector 672 GossipSubNetwork.nodes[220].connectionManager passiveListUpdate:vector ETV
vector 673 GossipSubNetwork.nodes[867].connectionManager passiveListUpdate:vector ETV
vector 674 GossipSubNetwork.nodes[742].connectionManager passiveListUpdate:vector ETV
vector 675 GossipSubNetwork.nodes[25].connectionManager passiveListUpdate:vector ETV
vector 676 GossipSubNetwork.nodes[840].connectionManager passiveListUpdate:vector ETV
vector 677 GossipSubNetwork.nodes[784].connectionManager passiveListUpdate:vector ETV
vector 678 GossipSubNetwork.nodes[82].connectionManager passiveListUpdate:vector ETV
vector 679 GossipSubNetwork.nodes[34].connectionManager passiveListUpdate:vector ETV
vector 680 GossipSubNetwork.nodes[268].connectionManager passiveListUpdate:vector ETV
vector 681 GossipSubNetwork.nodes[492].connectionManager passiveListUpdate:vector ETV
vector 682 GossipSubNetwork.nodes[838].connectionManager passiveListUpdate:vector ETV
vector 683 GossipSubNetwork.nodes[290].connectionManager passiveListUpdate:vector ETV
vector 684 GossipSubNetwork.nodes[186].connectionManager passiveListUpdate:vector ETV
vector 685 GossipSubNetwork.nodes[716].connectionManager passiveListUpdate:vector ETV
vector 686 GossipSubNetwork.nodes[581].connectionManager passiveListUpdate:vector ETV
vector 687 GossipSubNetwork.nodes[87].connectionManager passiveListUpdate:vector ETV
vector 688 GossipSubNetwork.nodes[122].connectionManager passiveListUpdate:vector ETV
vector 689 GossipSubNetwork.nodes[451].connectionManager passiveListUpdate:vector ETV
vector 690 GossipSubNetwork.nodes[252].connectionManager passiveListUpdate:vector ETV
vector 691 GossipSubNetwork.nodes[169].connectionManager passiveListUpdate:vector ETV
vector 692 GossipSubNetwork.nodes[52].connectionManager passiveListUpdate:vector ETV
vector 693 GossipSubNetwork.nodes[954].connectionManager passiveListUpdate:vector ETV
vector 694 GossipSubNetwork.nodes[187].connectionManager passiveListUpdate:vector ETV
vector 695 GossipSubNetwork.nodes[652].connectionManager passiveListUpdate:vector ETV
vector 696 GossipSubNetwork.nodes[432].connectionManager passiveListUpdate:vector ETV
vector 697 GossipSubNetwork.nodes[312].connectionManager passiveListUpdate:vector ETV
vector 698 GossipSubNetwork.nodes[275].connectionManager passiveListUpdate:vector ETV
vector 699 GossipSubNetwork.nodes[639].connectionManager passiveListUpdate:vector ETV
vector 700 GossipSubNetwork.nodes[584].connectionManager passiveListUpdate:vector ETV
vector 701 GossipSubNetwork.nodes[179].connectionManager passiveListUpdate:vector ETV
vector 702 GossipSubNetwork.nodes[832].connectionManager passiveListUpdate:vector ETV
vector 703 GossipSubNetwork.nodes[785].connectionManager passiveListUpdate:vector ETV
vector 704 GossipSubNetwork.nodes[783].connectionManager passiveListUpdate:vector ETV
vector 705 GossipSubNetwork.nodes[558].connectionManager passiveListUpdate:vector ETV
vector 706 GossipSubNetwork.nodes[513].connectionManager passiveListUpdate:vector ETV
vector 707 GossipSubNetwork.nodes[379].connectionManager passiveListUpdate:vector ETV
vector 708 GossipSubNetwork.nodes[740].connectionManager passiveListUpdate:vector ETV
vector 709 GossipSubNetwork.nodes[11].connectionManager passiveListUpdate:vector ETV
vector 710 GossipSubNetwork.nodes[377].connectionManager passiveListUpdate:vector ETV
vector 711 GossipSubNetwork.nodes[249].connectionManager passiveListUpdate:vector ETV
vector 712 GossipSubNetwork.nodes[682].connectionManager passiveListUpdate:vector ETV
vector 713 GossipSubNetwork.nodes[243].connectionManager passiveListUpdate:vector ETV
vector 714 GossipSubNetwork.nodes[721].connectionManager passiveListUpdate:vector ETV
vector 715 GossipSubNetwork.nodes[502].connectionManager passiveListUpdate:vector ETV
vector 716 GossipSubNetwork.nodes[914].connectionManager passiveListUpdate:vector ETV
vector 717 GossipSubNetwork.nodes[734].connectionManager passiveListUpdate:vector ETV
vector 718 GossipSubNetwork.nodes[324].connectionManager passiveListUpdate:vector ETV
vector 719 GossipSubNetwork.nodes[576].connectionManager passiveListUpdate:vector ETV
vector 720 GossipSubNetwork.nodes[987].connectionManager passiveListUpdate:vector ETV
vector 721 GossipSubNetwork.nodes[280].connectionManager passiveListUpdate:vector ETV
vector 722 GossipSubNetwork.nodes[996].connectionManager passiveListUpdate:vector ETV
vector 723 GossipSubNetwork.nodes[769].connectionManager passiveListUpdate:vector ETV
vector 724 GossipSubNetwork.nodes[283].connectionManager passiveListUpdate:vector ETV
vector 725 GossipSubNetwork.nodes[423].connectionManager passiveListUpdate:vector ETV
vector 726 GossipSubNetwork.nodes[642].connectionManager passiveListUpdate:vector ETV
vector 727 GossipSubNetwork.nodes[96].connectionManager passiveListUpdate:vector ETV
vector 728 GossipSubNetwork.nodes[45].connectionManager passiveListUpdate:vector ETV
vector 729 GossipSubNetwork.nodes[776].connectionManager passiveListUpdate:vector ETV
vector 730 GossipSubNetwork.nodes[843].connectionManager passiveListUpdate:vector ETV
vector 731 GossipSubNetwork.nodes[524].connectionManager passiveListUpdate:vector ETV
vector 732 GossipSubNetwork.nodes[319].connectionManager passiveListUpdate:vector ETV
vector 733 GossipSubNetwork.nodes[85].connectionManager passiveListUpdate:vector ETV
vector 734 GossipSubNetwork.nodes[47].connectionManager passiveListUpdate:vector ETV
vector 735 GossipSubNetwork.nodes[945].connectionManager passiveListUpdate:vector ETV
vector 736 GossipSubNetwork.nodes[62].connectionManager passiveListUpdate:vector ETV
vector 737 GossipSubNetwork.nodes[949].connectionManager passiveListUpdate:vector ETV
vector 738 GossipSubNetwork.nodes[807].connectionManager passiveListUpdate:vector ETV
vector 739 GossipSubNetwork.nodes[928].connectionManager passiveListUpdate:vector ETV
vector 740 GossipSubNetwork.nodes[292].connectionManager passiveListUpdate:vector ETV
vector 741 GossipSubNetwork.nodes[518].connectionManager passiveListUpdate:vector ETV
vector 742 GossipSubNetwork.nodes[907].connectionManager passiveListUpdate:vector ETV
vector 743 GossipSubNetwork.nodes[396].connectionManager passiveListUpdate:vector ETV
vector 744 GossipSubNetwork.nodes[839].connectionManager passiveListUpdate:vector ETV
vector 745 GossipSubNetwork.nodes[170].connectionManager passiveListUpdate:vector ETV
vector 746 GossipSubNetwork.nodes[750].connectionManager passiveListUpdate:vector ETV
vector 747 GossipSubNetwork.nodes[594].connectionManager passiveListUpdate:vector ETV
vector 748 GossipSubNetwork.nodes[640].connectionManager passiveListUpdate:vector ETV
vector 749 GossipSubNetwork.nodes[919].connectionManager passiveListUpdate:vector ETV
vector 750 GossipSubNetwork.nodes[511].connectionManager passiveListUpdate:vector ETV
vector 751 GossipSubNetwork.nodes[90].connectionManager passiveListUpdate:vector ETV
vector 752 GossipSubNetwork.nodes[33].connectionManager passiveListUpdate:vector ETV
vector 753 GossipSubNetwork.nodes[145].connectionManager passiveListUpdate:vector ETV
vector 754 GossipSubNetwork.nodes[210].connectionManager passiveListUpdate:vector ETV
vector 755 GossipSubNetwork.nodes[412].connectionManager passiveListUpdate:vector ETV
vector 756 GossipSubNetwork.nodes[759].connectionManager passiveListUpdate:vector ETV
vector 757 GossipSubNetwork.nodes[271].connectionManager passiveListUpdate:vector ETV
vector 758 GossipSubNetwork.nodes[102].connectionManager passiveListUpdate:vector ETV
vector 759 GossipSubNetwork.nodes[409].connectionManager passiveListUpdate:vector ETV
vector 760 GossipSubNetwork.nodes[333].connectionManager passiveListUpdate:vector ETV
vector 761 GossipSubNetwork.nodes[545].connectionManager passiveListUpdate:vector ETV
vector 762 GossipSubNetwork.nodes[378].connectionManager passiveListUpdate:vector ETV
vector 763 GossipSubNetwork.nodes[309].connectionManager passiveListUpdate:vector ETV
vector 764 GossipSubNetwork.nodes[530].connectionManager passiveListUpdate:vector ETV
vector 765 GossipSubNetwork.nodes[901].connectionManager passiveListUpdate:vector ETV
vector 766 GossipSubNetwork.nodes[32].connectionManager passiveListUpdate:vector ETV
vector 767 GossipSubNetwork.nodes[463].connectionManager passiveListUpdate:vector ETV
vector 768 GossipSubNetwork.nodes[671].connectionManager passiveListUpdate:vector ETV
vector 769 GossipSubNetwork.nodes[95].connectionManager passiveListUpdate:vector ETV
vector 770 GossipSubNetwork.nodes[316].connectionManager passiveListUpdate:vector ETV
vector 771 GossipSubNetwork.nodes[920].connectionManager passiveListUpdate:vector ETV
vector 772 GossipSubNetwork.nodes[988].connectionManager passiveListUpdate:vector ETV
vector 773 GossipSubNetwork.nodes[818].connectionManager passiveListUpdate:vector ETV
vector 774 GossipSubNetwork.nodes[836].connectionManager passiveListUpdate:vector ETV
vector 775 GossipSubNetwork.nodes[206].connectionManager passiveListUpdate:vector ETV
vector 776 GossipSubNetwork.nodes[61].connectionManager passiveListUpdate:vector ETV
vector 777 GossipSubNetwork.nodes[565].connectionManager passiveListUpdate:vector ETV
vector 778 GossipSubNetwork.nodes[466].connectionManager passiveListUpdate:vector ETV
vector 779 GossipSubNetwork.nodes[461].connectionManager passiveListUpdate:vector ETV
vector 780 GossipSubNetwork.nodes[88].connectionManager passiveListUpdate:vector ETV
vector 781 GossipSubNetwork.nodes[970].connectionManager passiveListUpdate:vector ETV
vector 782 GossipSubNetwork.nodes[667].connectionManager passiveListUpdate:vector ETV
vector 783 GossipSubNetwork.nodes[804].connectionManager passiveListUpdate:vector ETV
vector 784 GossipSubNetwork.nodes[197].connectionManager passiveListUpdate:vector ETV
vector 785 GossipSubNetwork.nodes[344].connectionManager passiveListUpdate:vector ETV
vector 786 GossipSubNetwork.nodes[245].connectionManager passiveListUpdate:vector ETV
vector 787 GossipSubNetwork.nodes[462].connectionManager passiveListUpdate:vector ETV
vector 788 GossipSubNetwork.nodes[950].connectionManager passiveListUpdate:vector ETV
vector 789 GossipSubNetwork.nodes[103].connectionManager passiveListUpdate:vector ETV
vector 790 GossipSubNetwork.nodes[596].connectionManager passiveListUpdate:vector ETV
vector 791 GossipSubNetwork.nodes[887].connectionManager passiveListUpdate:vector ETV
vector 792 GossipSubNetwork.nodes[273].connectionManager passiveListUpdate:vector ETV
vector 793 GossipSubNetwork.nodes[690].connectionManager passiveListUpdate:vector ETV
vector 794 GossipSubNetwork.nodes[178].connectionManager passiveListUpdate:vector ETV
vector 795 GossipSubNetwork.nodes[967].connectionManager passiveListUpdate:vector ETV
vector 796 GossipSubNetwork.nodes[431].connectionManager passiveListUpdate:vector ETV
vector 797 GossipSubNetwork.nodes[100].connectionManager passiveListUpdate:vector ETV
vector 798 GossipSubNetwork.nodes[362].connectionManager passiveListUpdate:vector ETV
vector 799 GossipSubNetwork.nodes[482].connectionManager passiveListUpdate:vector ETV
vector 800 GossipSubNetwork.nodes[591].connectionManager passiveListUpdate:vector ETV
vector 801 GossipSubNetwork.nodes[635].connectionManager passiveListUpdate:vector ETV
vector 802 GossipSubNetwork.nodes[198].connectionManager passiveListUpdate:vector ETV
vector 803 GossipSubNetwork.nodes[50].connectionManager passiveListUpdate:vector ETV
vector 804 GossipSubNetwork.nodes[304].connectionManager passiveListUpdate:vector ETV
vector 805 GossipSubNetwork.nodes[260].connectionManager passiveListUpdate:vector ETV
vector 806 GossipSubNetwork.nodes[677].connectionManager passiveListUpdate:vector ETV
vector 807 GossipSubNetwork.nodes[278].connectionManager passiveListUpdate:vector ETV
vector 808 GossipSubNetwork.nodes[184].connectionManager passiveListUpdate:vector ETV
vector 809 GossipSubNetwork.nodes[269].connectionManager passiveListUpdate:vector ETV
vector 810 GossipSubNetwork.nodes[368].connectionManager passiveListUpdate:vector ETV
vector 811 GossipSubNetwork.nodes[348].connectionManager passiveListUpdate:vector ETV
vector 812 GossipSubNetwork.nodes[391].connectionManager passiveListUpdate:vector ETV
vector 813 GossipSubNetwork.nodes[53].connectionManager passiveListUpdate:vector ETV
vector 814 GossipSubNetwork.nodes[544].connectionManager passiveListUpdate:vector ETV
vector 815 GossipSubNetwork.nodes[607].connectionManager passiveListUpdate:vector ETV
vector 816 GossipSubNetwork.nodes[935].connectionManager passiveListUpdate:vector ETV
vector 817 GossipSubNetwork.nodes[551].connectionManager passiveListUpdate:vector ETV
vector 818 GossipSubNetwork.nodes[571].connectionManager passiveListUpdate:vector ETV
vector 819 GossipSubNetwork.nodes[457].connectionManager passiveListUpdate:vector ETV
vector 820 GossipSubNetwork.nodes[675].connectionManager passiveListUpdate:vector ETV
vector 821 GossipSubNetwork.nodes[900].connectionManager passiveListUpdate:vector ETV
vector 822 GossipSubNetwork.nodes[626].connectionManager passiveListUpdate:vector ETV
vector 823 GossipSubNetwork.nodes[879].connectionManager passiveListUpdate:vector ETV
vector 824 GossipSubNetwork.nodes[337].connectionManager passiveListUpdate:vector ETV
vector 825 GossipSubNetwork.nodes[556].connectionManager passiveListUpdate:vector ETV
vector 826 GossipSubNetwork.nodes[764].connectionManager passiveListUpdate:vector ETV
vector 827 GossipSubNetwork.nodes[70].connectionManager passiveListUpdate:vector ETV
vector 828 GossipSubNetwork.nodes[526].connectionManager passiveListUpdate:vector ETV
vector 829 GossipSubNetwork.nodes[165].connectionManager passiveListUpdate:vector ETV
vector 830 GossipSubNetwork.nodes[108].connectionManager passiveListUpdate:vector ETV
vector 831 GossipSubNetwork.nodes[211].connectionManager passiveListUpdate:vector ETV
vector 832 GossipSubNetwork.nodes[554].connectionManager passiveListUpdate:vector ETV
vector 833 GossipSubNetwork.nodes[733].connectionManager passiveListUpdate:vector ETV
vector 834 GossipSubNetwork.nodes[897].connectionManager passiveListUpdate:vector ETV
vector 835 GossipSubNetwork.nodes[719].connectionManager passiveListUpdate:vector ETV
vector 836 GossipSubNetwork.nodes[112].connectionManager passiveListUpdate:vector ETV
vector 837 GossipSubNetwork.nodes[647].connectionManager passiveListUpdate:vector ETV
vector 838 GossipSubNetwork.nodes[16].connectionManager passiveListUpdate:vector ETV
vector 839 GossipSubNetwork.nodes[426].connectionManager passiveListUpdate:vector ETV
vector 840 GossipSubNetwork.nodes[392].connectionManager passiveListUpdate:vector ETV
vector 841 GossipSubNetwork.nodes[226].connectionManager passiveListUpdate:vector ETV
vector 842 GossipSubNetwork.nodes[904].connectionManager passiveListUpdate:vector ETV
vector 843 GossipSubNetwork.nodes[84].connectionManager passiveListUpdate:vector ETV
vector 844 GossipSubNetwork.nodes[405].connectionManager passiveListUpdate:vector ETV
vector 845 GossipSubNetwork.nodes[726].connectionManager passiveListUpdate:vector ETV
vector 846 GossipSubNetwork.nodes[655].connectionManager passiveListUpdate:vector ETV
vector 847 GossipSubNetwork.nodes[620].connectionManager passiveListUpdate:vector ETV
vector 848 GossipSubNetwork.nodes[345].connectionManager passiveListUpdate:vector ETV
vector 849 GossipSubNetwork.nodes[135].connectionManager passiveListUpdate:vector ETV
vector 850 GossipSubNetwork.nodes[488].connectionManager passiveListUpdate:vector ETV
vector 851 GossipSubNetwork.nodes[444].connectionManager passiveListUpdate:vector ETV
vector 852 GossipSubNetwork.nodes[437].connectionManager passiveListUpdate:vector ETV
vector 853 GossipSubNetwork.nodes[803].connectionManager passiveListUpdate:vector ETV
vector 854 GossipSubNetwork.nodes[455].connectionManager passiveListUpdate:vector ETV
vector 855 GossipSubNetwork.nodes[931].connectionManager passiveListUpdate:vector ETV
vector 856 GossipSubNetwork.nodes[651].connectionManager passiveListUpdate:vector ETV
vector 857 GossipSubNetwork.nodes[706].connectionManager passiveListUpdate:vector ETV
vector 858 GossipSubNetwork.nodes[878].connectionManager passiveListUpdate:vector ETV
vector 859 GossipSubNetwork.nodes[10].connectionManager passiveListUpdate:vector ETV
vector 860 GossipSubNetwork.nodes[773].connectionManager passiveListUpdate:vector ETV
vector 861 GossipSubNetwork.nodes[507].connectionManager passiveListUpdate:vector ETV
vector 862 GossipSubNetwork.nodes[574].connectionManager passiveListUpdate:vector ETV
vector 863 GossipSubNetwork.nodes[97].connectionManager passiveListUpdate:vector ETV
vector 864 GossipSubNetwork.nodes[697].connectionManager passiveListUpdate:vector ETV
vector 865 GossipSubNetwork.nodes[322].connectionManager passiveListUpdate:vector ETV
vector 866 GossipSubNetwork.nodes[953].connectionManager passiveListUpdate:vector ETV
vector 867 GossipSubNetwork.nodes[113].connectionManager passiveListUpdate:vector ETV
vector 868 GossipSubNetwork.nodes[277].connectionManager passiveListUpdate:vector ETV
vector 869 GossipSubNetwork.nodes[207].connectionManager passiveListUpdate:vector ETV
vector 870 GossipSubNetwork.nodes[93].connectionManager passiveListUpdate:vector ETV
vector 871 GossipSubNetwork.nodes[80].connectionManager passiveListUpdate:vector ETV
vector 872 GossipSubNetwork.nodes[422].connectionManager passiveListUpdate:vector ETV
vector 873 GossipSubNetwork.nodes[497].connectionManager passiveListUpdate:vector ETV
vector 874 GossipSubNetwork.nodes[791].connectionManager passiveListUpdate:vector ETV
vector 875 GossipSubNetwork.nodes[201].connectionManager passiveListUpdate:vector ETV
vector 876 GossipSubNetwork.nodes[543].connectionManager passiveListUpdate:vector ETV
vector 877 GossipSubNetwork.nodes[59].connectionManager passiveListUpdate:vector ETV
vector 878 GossipSubNetwork.nodes[40].connectionManager passiveListUpdate:vector ETV
vector 879 GossipSubNetwork.nodes[732].connectionManager passiveListUpdate:vector ETV
vector 880 GossipSubNetwork.nodes[753].connectionManager passiveListUpdate:vector ETV
vector 881 GossipSubNetwork.nodes[190].connectionManager passiveListUpdate:vector ETV
vector 882 GossipSubNetwork.nodes[621].connectionManager passiveListUpdate:vector ETV
vector 883 GossipSubNetwork.nodes[880].connectionManager passiveListUpdate:vector ETV
vector 884 GossipSubNetwork.nodes[730].connectionManager passiveListUpdate:vector ETV
vector 885 GossipSubNetwork.nodes[817].connectionManager passiveListUpdate:vector ETV
vector 886 GossipSubNetwork.nodes[643].connectionManager passiveListUpdate:vector ETV
vector 887 GossipSubNetwork.nodes[569].connectionManager passiveListUpdate:vector ETV
vector 888 GossipSubNetwork.nodes[2].connectionManager passiveListUpdate:vector ETV
vector 889 GossipSubNetwork.nodes[453].connectionManager passiveListUpdate:vector ETV
vector 890 GossipSubNetwork.nodes[153].connectionManager passiveListUpdate:vector ETV
vector 891 GossipSubNetwork.nodes[60].connectionManager passiveListUpdate:vector ETV
vector 892 GossipSubNetwork.nodes[192].connectionManager passiveListUpdate:vector ETV
vector 893 GossipSubNetwork.nodes[611].connectionManager passiveListUpdate:vector ETV
vector 894 GossipSubNetwork.nodes[509].connectionManager passiveListUpdate:vector ETV
vector 895 GossipSubNetwork.nodes[598].connectionManager passiveListUpdate:vector ETV
vector 896 GossipSubNetwork.nodes[826].connectionManager passiveListUpdate:vector ETV
vector 897 GossipSubNetwork.nodes[208].connectionManager passiveListUpdate:vector ETV
vector 898 GossipSubNetwork.nodes[947].connectionManager passiveListUpdate:vector ETV
vector 899 GossipSubNetwork.nodes[833].connectionManager passiveListUpdate:vector ETV
vector 900 GossipSubNetwork.nodes[595].connectionManager passiveListUpdate:vector ETV
vector 901 GossipSubNetwork.nodes[284].connectionManager passiveListUpdate:vector ETV
vector 902 GossipSubNetwork.nodes[116].connectionManager passiveListUpdate:vector ETV
vector 903 GossipSubNetwork.nodes[691].connectionManager passiveListUpdate:vector ETV
vector 904 GossipSubNetwork.nodes[909].connectionManager passiveListUpdate:vector ETV
vector 905 GossipSubNetwork.nodes[772].connectionManager passiveListUpdate:vector ETV
vector 906 GossipSubNetwork.nodes[767].connectionManager passiveListUpdate:vector ETV
vector 907 GossipSubNetwork.nodes[335].connectionManager passiveListUpdate:vector ETV
vector 908 GossipSubNetwork.nodes[248].connectionManager passiveListUpdate:vector ETV
vector 909 GossipSubNetwork.nodes[899].connectionManager passiveListUpdate:vector ETV
vector 910 GossipSubNetwork.nodes[459].connectionManager passiveListUpdate:vector ETV
vector 911 GossipSubNetwork.nodes[939].connectionManager passiveListUpdate:vector ETV
vector 912 GossipSubNetwork.nodes[741].connectionManager passiveListUpdate:vector ETV
vector 913 GossipSubNetwork.nodes[39].connectionManager passiveListUpdate:vector ETV
vector 914 GossipSubNetwork.nodes[735].connectionManager passiveListUpdate:vector ETV
[...]
785	19304270 2998 22633439 25447282 509.640028555261 599.727769885705 91 21 21 1911 40131
786	19307268 2932 22630547 25441329 509.560937587556 599.517751897487 89 21 21 1869 39249
787	19310200 3258 22641161 25453139 509.831240231478 599.937127519487 99 21 21 2079 43659
788	19313458 2998 22696935 25430933 511.087139007913 599.162772062852 91 21 21 1911 40131
789	19316456 2927 22627528 25451385 509.468638774894 599.875492995209 89 21 21 1869 39249
790	19319383 2272 22665959 25421908 510.372414714295 598.859579768263 69 21 21 1449 30429
791	19321655 2993 22625171 25449402 509.402613119228 599.803568905483 91 21 21 1911 40131
792	19324648 2436 22624081 25449962 509.370700745741 599.824523138108 74 21 21 1554 32634
793	19327084 2666 22668012 25424357 510.412585754375 598.939723640681 81 21 21 1701 35721
794	19329750 2628 22671511 25410420 510.4892073992 598.480267831971 80 22 22 1760 38720
795	19332378 2621 22674286 25401830 510.547425854801 598.206236870776 80 21 21 1680 35280
796	19334999 2670 22658718 25408085 510.223039069187 598.404061298623 81 21 21 1701 35721
797	19337669 2432 22639287 25448915 509.786191747737 599.786191747737 74 21 21 1554 32634
798	19340101 2863 22650999 25451975 510.059096559725 599.895978798046 87 21 21 1827 38367
799	19342964 2493 22626610 25454205 509.442477063308 599.973602183466 76 21 21 1596 33516
800	19345457 2302 22639751 25450212 509.796037941849 599.834230911438 70 21 21 1470 30870
801	19347759 3028 22649822 25413777 510.032861126817 598.592309072362 92 21 21 1932 40572
802	19350787 3125 22628556 25433097 509.500155886473 599.235806245366 95 21 21 1995 41895
803	19353912 2698 22625963 25450570 509.424625515456 599.846565373623 82 22 22 1804 39688
804	19356610 2571 22685808 25441277 510.803608049718 599.516639675584 78 21 21 1638 34398
805	19359181 2663 22660079 25432497 510.253794578207 599.215478920863 81 21 21 1701 35721
806	19361844 3089 22637933 25444585 509.750613871604 599.631946756632 94 21 21 1974 41454
807	19364933 2269 22654827 25431254 510.141213970793 599.173611557781 69 21 21 1449 30429
808	19367202 2660 22654388 25424541 510.132105406034 598.946267681905 81 21 21 1701 35721
809	19369862 2697 22685802 25453267 510.803552574045 599.94098631418 82 21 21 1722 36162
810	19372559 2171 22638396 25450697 509.762372931983 599.85155128792 66 21 21 1386 29106
811	19374730 2629 22628035 25419053 509.484039208739 598.766483632663 80 21 21 1680 35280
812	19377359 2959 22675356 25412739 510.569784967753 598.559544265117 90 21 21 1890 39690
813	19380318 2632 22627428 25443664 509.466048895223 599.600815801707 80 21 21 1680 35280
814	19382950 2663 22640412 25442838 509.813208436748 599.571205736896 81 21 21 1701 35721
815	19385613 2636 22641998 25453411 509.852111673651 599.947322251368 80 21 21 1680 35280
816	19388249 2797 22620754 25429330 509.268637308172 599.109905311965 85 22 22 1870 41140
817	19391046 3193 22650860 25445137 510.05588631036 599.652616860276 97 21 21 2037 42777
818	19394239 2104 22626769 25438924 509.448597833679 599.433268488077 64 21 21 1344 28224
819	19396343 2767 22645419 25427484 509.929487326643 599.046718229457 84 21 21 1764 37044
820	19399110 2801 22647589 25445936 509.980918639824 599.680947288549 85 21 21 1785 37485
821	19401911 2498 22637417 25438277 509.739824468985 599.411714248399 76 21 21 1596 33516
822	19404409 2563 22620676 25404201 509.266004650449 598.281888354874 78 21 21 1638 34398
823	19406972 2798 22640419 25454020 509.813369442049 599.966206156839 85 21 21 1785 37485
824	19409770 2568 22621631 25431916 509.295006985502 599.194892147216 78 21 21 1638 34398
825	19412338 2401 22700272 25453545 511.178591956978 599.95189959012 73 21 21 1533 32193
826	19414739 2533 22645508 25453878 509.931365809414 599.962270486237 77 21 21 1617 33957
827	19417272 2826 22666629 25405613 510.386111164805 598.326253773437 86 21 21 1806 37926
828	19420098 2522 22664775 25415764 510.347515029569 598.657058826881 77 21 21 1617 33957
829	19422620 2961 22668993 25398759 510.433383832431 598.1143613451 90 21 21 1890 39690
830	19425581 2927 22658707 25416344 510.222942062855 598.677894847476 89 21 21 1869 39249
831	19428508 2761 22680215 25423599 510.675738126989 598.915425669989 84 21 21 1764 37044
832	19431269 2531 22630027 25442382 509.544330598738 599.555272088633 77 21 21 1617 33957
833	19433800 2535 22669386 25408323 510.441452985273 598.411732205262 77 21 21 1617 33957
834	19436335 2374 22652326 25454109 510.088928096877 599.969687861942 72 21 21 1512 31752
835	19438709 2494 22659777 25404766 510.246034436135 598.299908512721 76 22 22 1672 36784
836	19441203 2136 22658776 25405288 510.2243680896 598.315412377607 65 21 21 1365 28665
837	19443339 2672 22689914 25417915 510.903554264348 598.729816960917 81 21 21 1701 35721
838	19446011 2371 22640262 25451041 509.809345801524 599.863985807383 72 21 21 1512 31752
839	19448382 2496 22642032 25452984 509.852750901172 599.931762814922 76 21 21 1596 33516
840	19450878 2206 22698942 25431904 511.140160386838 599.194122583682 67 21 21 1407 29547
841	19453084 2699 22688208 25427808 510.860961772946 599.057864890034 82 21 21 1722 36162
842	19455783 2395 22647471 25399481 509.978017681063 598.136372500859 73 21 21 1533 32193
843	19458178 3255 22656073 25427294 510.167748140462 599.039561644322 99 21 21 2079 43659
844	19461433 2238 22623146 25399855 509.340941505797 598.147140303833 68 21 21 1428 29988
845	19463671 2567 22620220 25432573 509.251327634854 599.217837018824 78 21 21 1638 34398
846	19466238 2668 22632855 25452404 509.625363098973 599.911193305375 81 21 21 1701 35721
847	19468906 2664 22619936 25451023 509.241228455708 599.863286203062 81 21 21 1701 35721
848	19471570 2632 22633358 25446563 509.637706047752 599.703066109627 80 21 21 1680 35280
849	19474202 2632 22638576 25430639 509.76656902885 599.152156180928 80 21 21 1680 35280
850	19476834 2727 22639954 25448589 509.802176068419 599.775602965365 83 21 21 1743 36603
851	19479561 2067 22689535 25423099 510.894272133317 598.89796697383 63 21 21 1323 27783
852	19481628 2535 22679491 25414128 510.661120139614 598.603051267689 77 21 21 1617 33957
853	19484163 2826 22692897 25427368 510.978733582534 599.04191772227 86 21 21 1806 37926
854	19486989 2403 22637407 25448173 509.739400891472 599.762023142436 73 21 21 1533 32193
855	19489392 2465 22666620 25423445 510.385913511048 598.910452804475 75 21 21 1575 33075
856	19491857 2499 22633111 25422376 509.6326707685 598.874791238115 76 21 21 1596 33516
857	19494356 2765 22649782 25416028 510.031371902488 598.667524646464 84 21 21 1764 37044
858	19497121 2766 22629493 25448429 509.527410803003 599.769916915009 84 21 21 1764 37044
859	19499887 2731 22642902 25448686 509.87353181267 599.778853324108 83 21 21 1743 36603
860	19502618 2271 22679466 25413347 510.66031213759 598.577796170857 69 21 21 1449 30429
861	19504889 2599 22630014 25452493 509.54384281121 599.914479270256 79 21 21 1659 34839
862	19507488 2358 22684113 25420439 510.764993881045 598.811388605 72 21 21 1512 31752
863	19509846 2797 22663153 25406448 510.314494734371 598.352885395597 85 21 21 1785 37485
864	19512643 2759 22652992 25428796 510.10106979568 599.090589726607 84 21 21 1764 37044
865	19515402 2731 22638379 25447195 509.761839652983 599.725842558134 83 21 21 1743 36603
866	19518133 2800 22696900 25427203 511.085927756574 599.03703624676 85 21 21 1785 37485
867	19520933 2862 22660340 25401729 510.259360561327 598.203157696321 87 21 21 1827 38367
868	19523795 2930 22661084 25421404 510.275161489377 598.841935652424 89 21 21 1869 39249
869	19526725 2730 22679001 25421800 510.649213210857 598.856141789734 83 22 22 1826 40172
870	19529455 2143 22628078 25400341 509.485352806018 598.161238191267 65 21 21 1365 28665
871	19531598 2926 22675775 25417358 510.578792577633 598.71169706199 89 21 21 1869 39249
872	19534524 2301 22631904 25436422 509.597769942051 599.347311748963 70 21 21 1470 30870
873	19536825 3117 22651384 25447363 510.065660271966 599.731217651555 95 21 21 1995 41895
874	19539942 2600 22660855 25405542 510.269412510892 598.324390434479 79 21 21 1659 34839
875	19542542 2794 22639822 25423569 509.798375927134 598.914527716174 85 21 21 1785 37485
876	19545336 2661 22698820 25425066 511.136881917332 598.964016105568 81 21 21 1701 35721
877	19547997 2565 22650213 25437735 510.041203214063 599.391866213252 78 21 21 1638 34398
878	19550562 2722 22670387 25414903 510.465748388043 598.628417542862 83 21 21 1743 36603
879	19553284 2500 22633973 25446504 509.654383911339 599.701318530332 76 21 21 1596 33516
880	19555784 2435 22624815 25437833 509.392092620172 599.395531714298 74 21 21 1554 32634
881	19558219 2963 22647899 25451244 509.986643565605 599.870869354662 90 21 21 1890 39690
882	19561182 2628 22633332 25435872 509.63716682405 599.326902554788 80 21 21 1680 35280
883	19563810 2962 22629118 25442870 509.519297572849 599.572232701849 90 21 21 1890 39690
884	19566772 2832 22621832 25429241 509.302544371933 599.106453822598 86 21 21 1806 37926
885	19569604 2499 22624114 25439754 509.371986009474 599.461896942905 76 21 21 1596 33516
886	19572103 2693 22668606 25452278 510.425391222103 599.906595840163 82 21 21 1722 36162
887	19574796 2075 22670564 25423050 510.469245491992 598.896536077858 63 21 21 1323 27783
888	19576871 118450 22623155 25454143 509.341249703784 599.971211406575 3495 291 337 1098147 345619099
889	19695321 2898 22663857 25409318 510.328739947109 598.442099261954 88 21 21 1848 38808
890	19698219 2368 22636527 25416773 509.716727906247 598.692608750651 72 22 22 1584 34848
891	19700587 2796 22671682 25412581 510.49266458575 598.554421251661 85 21 21 1785 37485
892	19703383 2828 22649033 25426301 510.015094287393 599.005696641999 86 21 21 1806 37926
893	19706211 2564 22682262 25433150 510.721625678646 599.237465802255 78 21 21 1638 34398
894	19708775 2203 22620577 25437801 509.262582227495 599.394342705061 67 21 21 1407 29547
895	19710978 2133 22671157 25408346 510.48217989328 598.412219102917 65 21 21 1365 28665
896	19713111 2143 22701108 25439454 511.203212036064 599.451668194478 65 21 21 1365 28665
897	19715254 2795 22627978 25445361 509.48239195252 599.660271187499 85 21 21 1785 37485
898	19718049 2726 22670527 25412566 510.468439057513 598.553821830013 83 21 21 1743 36603
899	19720775 2825 22644555 25449940 509.910890521078 599.82377246375 86 21 21 1806 37926
900	19723600 2667 22685670 25422202 510.800619252859 598.869750809681 81 21 21 1701 35721
901	19726267 2662 22653085 25398259 510.102925444206 598.099893845874 81 21 21 1701 35721
902	19728929 3297 22625536 25413538 509.414890110046 598.585498396848 100 21 21 2100 44100
903	19732226 2958 22622729 25435376 509.329445959494 599.30987185454 90 21 21 1890 39690
904	19735184 2336 22662054 25420023 510.294690547562 598.79812211863 71 21 21 1491 31311
905	19737520 2666 22645599 25454396 509.933969883363 599.980616964503 81 22 22 1782 39204
906	19740186 2334 22627264 25453718 509.461464652896 599.95731293451 71 21 21 1491 31311
907	19742520 3058 22631354 25440235 509.580587591184 599.478382454307 93 22 22 2046 45012
908	19745578 3030 22634122 25451346 509.6586015634 599.874160844291 92 21 21 1932 40572
909	19748608 2234 22627686 25439306 509.473765409071 599.446376878203 68 21 21 1428 29988
910	19750842 2767 22625062 25437848 509.399828860953 599.395917828153 84 21 21 1764 37044
911	19753609 2866 22673356 25417979 510.528750345406 598.73191901362 87 21 21 1827 38367
912	19756475 2524 22623520 25435270 509.353406153825 599.3058339821 77 21 21 1617 33957
913	19758999 2565 22657777 25417818 510.202877640468 598.728027519249 78 21 21 1638 34398
914	19761564 2136 22638209 25405679 509.757472545275 598.328033302797 65 21 21 1365 28665
915	19763700 2364 22627969 25432703 509.482298572718 599.221219860522 72 21 21 1512 31752
916	19766064 2009 22645025 25451943 509.922784098706 599.894381513403 61 21 21 1281 26901
917	19768073 2596 22677891 25419970 510.623028583443 598.796261805764 79 21 21 1659 34839
918	19770669 2468 22650091 25453463 510.038459252977 599.948957068759 75 21 21 1575 33075
919	19773137 2704 22635236 25413281 509.684653759565 598.575743358013 82 21 21 1722 36162
920	19775841 2796 22651836 25453881 510.076400061253 599.962356947091 85 21 21 1785 37485
921	19778637 2662 22687934 25419306 510.853957655149 598.775227031439 81 21 21 1701 35721
922	19781299 2301 22683720 25434494 510.755186550038 599.280545292609 70 22 22 1540 33880
923	19783600 2794 22649418 25420586 510.024217726207 598.817459617909 85 21 21 1785 37485
924	19786394 2500 22639629 25450936 509.792829684996 599.860058965567 76 21 21 1596 33516
925	19788894 2303 22622501 25434203 509.322950612962 599.272046427663 70 21 21 1470 30870
926	19791197 2881 22688174 25445246 510.86005893591 599.656304942411 88 21 21 1848 38808
927	19794078 2231 22670324 25407322 510.464522455402 598.381266149616 68 21 21 1428 29988
928	19796309 2433 22640045 25433070 509.804191213618 599.235128284112 74 21 21 1554 32634
929	19798742 2236 22690148 25446033 510.909866717672 599.684855517411 68 21 21 1428 29988
930	19800978 2304 22685906 25421980 510.806250907384 598.862508396278 70 21 21 1470 30870
931	19803282 2499 22691704 25429108 510.948516944708 599.102086333294 76 21 21 1596 33516
932	19805781 2502 22663306 25407658 510.317448285605 598.389276831506 76 21 21 1596 33516
933	19808283 2763 22684755 25446241 510.779089328028 599.691460257799 84 21 21 1764 37044
934	19811046 2468 22682911 25442501 510.737225745737 599.55904644581 75 21 21 1575 33075
935	19813514 2431 22692053 25427074 510.955085255075 599.032491397234 74 22 22 1628 35816
936	19815945 2561 22677099 25416124 510.60438006131 598.670365360491 78 21 21 1638 34398
937	19818506 2799 22625349 25438375 509.407851085148 599.414810237319 85 21 21 1785 37485
938	19821305 2600 22632772 25450708 509.622347158896 599.852175325047 79 21 21 1659 34839
939	19823905 2338 22635908 25401781 509.700187817032 598.204915832518 71 21 21 1491 31311
940	19826243 2771 22646812 25407880 509.961432687492 598.397792735927 84 21 21 1764 37044
941	19829014 2767 22636684 25446719 509.720933812278 599.71017791991 84 21 21 1764 37044
942	19831781 2437 22699070 25429388 511.144531198065 599.111325423776 74 22 22 1628 35816
943	19834218 2305 22625903 25446120 509.423115203663 599.688437178045 70 21 21 1470 30870
944	19836523 2632 22635982 25448256 509.701769366901 599.764834541442 80 21 21 1680 35280
945	19839155 2657 22674792 25412660 510.559375813292 598.556877483057 81 21 21 1701 35721
946	19841812 2370 22624153 25438408 509.372910489049 599.415932141681 72 21 21 1512 31752
947	19844182 2864 22675873 25415245 510.581505517023 598.638132656298 87 21 21 1827 38367
948	19847046 2832 22632738 25446568 509.621107477155 599.703363730319 86 21 21 1806 37926
949	19849878 2305 22633223 25446348 509.635190237974 599.695753874343 70 21 21 1470 30870
950	19852183 2598 22639890 25447505 509.80011456078 599.736552623217 79 21 21 1659 34839
951	19854781 3017 22625313 25448333 509.406521537853 599.76721908804 92 21 21 1932 40572
952	19857798 2538 22636462 25407275 509.715050055155 598.380027625784 77 21 21 1617 33957
953	19860336 2961 22675440 25416390 510.571685669331 598.679758070898 90 21 21 1890 39690
954	19863297 2404 22685067 25453107 510.786360611579 599.936163627969 73 21 21 1533 32193
955	19865701 2865 22692809 25432259 510.976205154189 599.207152734075 87 21 21 1827 38367
956	19868566 2603 22631172 25451135 509.574261913773 599.867419668802 79 21 21 1659 34839
957	19871169 2566 22639924 25453274 509.801277671424 599.941189942214 78 21 21 1638 34398
958	19873735 2466 22642440 25451185 509.862789292076 599.869124019802 75 21 21 1575 33075
959	19876201 2237 22702556 25427988 511.244360687314 599.063441589466 68 21 21 1428 29988
960	19878438 2962 22646419 25453015 509.954773695113 599.933219043049 90 21 21 1890 39690
961	19881400 2238 22642897 25446270 509.873453770271 599.692414721767 68 21 21 1428 29988
962	19883638 2300 22661328 25399862 510.281106002893 598.147485442092 70 21 21 1470 30870
963	19885938 2667 22650171 25454162 510.040076201735 599.972089829997 81 21 21 1701 35721
964	19888605 2687 22625291 25443980 509.405733023409 599.612722070984 82 21 21 1722 36162
965	19891292 2663 22687057 25423830 510.831420668794 598.923208087993 81 22 22 1782 39204
966	19893955 3196 22653046 25429323 510.102273177874 599.109610837617 97 21 21 2037 42777
967	19897151 2432 22631871 25427206 509.596810975014 599.037086137814 74 21 21 1554 32634
968	19899583 3122 22669297 25427981 510.439269841878 599.063333637952 95 21 21 1995 41895
969	19902705 2830 22662302 25405937 510.29944894664 598.336588290082 86 22 22 1892 41624
970	19905535 2656 22687918 25424605 510.853524417716 598.948407145517 81 21 21 1701 35721
971	19908191 2438 22632628 25442898 509.617820822896 599.573099134757 74 21 21 1554 32634
972	19910629 2765 22627903 25440595 509.480816904933 599.492164411463 84 21 21 1764 37044
973	19913394 2337 22655645 25397254 510.159363276439 598.066483557838 71 21 21 1491 31311
974	19915731 2964 22661481 25444162 510.284258073724 599.618951658313 90 22 22 1980 43560
975	19918695 2603 22682035 25453424 510.7159710756 599.947604823939 79 21 21 1659 34839
976	19921298 2795 22629094 25452522 509.51881759497 599.915462238023 85 21 21 1785 37485
977	19924093 2667 22700789 25431932 511.193966208747 599.195294358089 81 21 21 1701 35721
978	19926760 2831 22627630 25446508 509.471014638614 599.701343656096 86 21 21 1806 37926
979	19929591 2306 22645722 25453154 509.936186263876 599.937533421384 70 21 21 1470 30870
980	19931897 2569 22621369 25445891 509.285237761305 599.679172615565 78 21 21 1638 34398
981	19934466 3056 22635805 25441331 509.69811396299 599.517792562107 93 21 21 1953 41013
982	19937522 2803 22648121 25452412 509.992296227866 599.911501245785 85 21 21 1785 37485
983	19940325 2337 22653224 25406182 510.105586022916 598.343809271516 71 21 21 1491 31311
984	19942662 2672 22691977 25424271 510.952779370967 598.938031676265 81 21 21 1701 35721
985	19945334 2889 22688736 25443961 510.875013798231 599.611978056087 88 21 21 1848 38808
986	19948223 2634 22622335 25454167 509.317419402491 599.972388676219 80 21 21 1680 35280
987	19950857 2896 22632683 25421065 509.619752179207 598.830967153957 88 21 21 1848 38808
988	19953753 2469 22624124 25438235 509.372242404662 599.410195037067 75 21 21 1575 33075
989	19956222 2993 22638534 25444262 509.765594116061 599.622414958782 91 21 21 1911 40131
990	19959215 2897 22656022 25433633 510.166999333857 599.253090925138 88 21 21 1848 38808
991	19962112 2896 22682214 25413463 510.720622637641 598.583090097217 88 21 21 1848 38808
992	19965008 2533 22676154 25414150 510.586962388438 598.6034040685 77 21 21 1617 33957
993	19967541 2006 22660811 25409346 510.268656019729 598.442758563877 61 21 21 1281 26901
994	19969547 2465 22628202 25444382 509.488949663563 599.625004081164 75 22 22 1650 36300
995	19972012 2698 22674642 25413770 510.555801667551 598.592029216433 82 21 21 1722 36162
996	19974710 2267 22659303 25409067 510.235739512104 598.433983946763 69 21 21 1449 30429
997	19976977 2730 22624663 25420728 509.387481955597 598.82086256092 83 21 21 1743 36603
998	19979707 2341 22650721 25427456 510.052460302291 599.045619810877 71 21 21 1491 31311
999	19982048 2267 22680029 25416643 510.671152758932 598.687946795868 69 21 21 1449 30429
1036	19984315 1575 22685653 25420066 510.800108845891 598.800108845891 45 342 386 16380 5969910
1362	19985890 1575 22692697 25425344 510.973588427234 598.973588427234 45 479 523 22545 11302635
1442	19987465 33 24846740 24846740 578.258733463752 578.258733463752 1 8 8 8 64
1466	19987498 67 23393788 24993875 531.543383064928 582.852516180293 2 9 10 19 181
1522	19987565 1610 22624375 25437384 509.379495446015 599.379495446015 46 644 689 30659 20442331
1623	19989175 67 23387346 24837796 531.269191263382 578.071348262519 2 9 10 19 181
1673	19989242 33 25000147 25000147 583.089209682305 583.089209682305 1 8 8 8 64

