file 104106380 1533508301                                       
version 2
run General-3-20180806-00:27:10-1968
attr configname General
attr datetime 20180806-00:27:10
attr experiment General
attr inifile gossipsub.ini
attr iterationvars $0=5000
attr iterationvarsf 5000-
attr measurement $0=5000
attr network sharding.GossipSubNetwork
attr processid 1968
attr repetition 0
attr replication #0
attr resultdir results-gossipsub
attr runnumber 3
attr seedset 3
param *Network.nodeCount 5000
param *Network.gossipRate 10.0Hz
param *Network.nodes[*].source.active true
param *Network.nodes[*].source.startTime 20s
param *Network.nodes[*].source.stopTime 580s
param *Network.nodes[*].lazyNotifier.notificationInterval 0.1s
param *Network.nodes[*].missingTracker.waitTime 2s
param *Network.nodes[*].connectionManager.numRandomNeighbors 5
param *Network.nodes[*].connectionManager.numNearNeighbors 5
param *Network.nodes[*].connectionManager.passiveListSize 20
param *Network.nodes[*].connectionManager.contactNodes "\"0 1 2\""
param *Network.nodes[*].connectionManager.activeHeartbeatInterval 2.0
param *Network.nodes[*].connectionManager.joinTTL 1
param *Network.nodes[*].connectionManager.forwardJoinTTL 1
param *Network.nodes[*].connectionManager.shuffleInterval 2.0
param *Network.nodes[*].connectionManager.activeShufflingSize 5
param *Network.nodes[*].connectionManager.passiveShufflingSize 5
param *Network.nodes[*].connectionManager.shuffleTTL 1

vector 0 GossipSubNetwork.nodes[2682].connectionManager passiveListUpdate:vector ETV
vector 1 GossipSubNetwork.nodes[2401].connectionManager passiveListUpdate:vector ETV
vector 2 GossipSubNetwork.nodes[382].connectionManager passiveListUpdate:vector ETV
vector 3 GossipSubNetwork.nodes[1625].connectionManager passiveListUpdate:vector ETV
vector 4 GossipSubNetwork.nodes[1181].connectionManager passiveListUpdate:vector ETV
vector 5 GossipSubNetwork.nodes[3560].connectionManager passiveListUpdate:vector ETV
vector 6 GossipSubNetwork.nodes[1311].connectionManager passiveListUpdate:vector ETV
vector 7 GossipSubNetwork.nodes[4417].connectionManager passiveListUpdate:vector ETV
vector 8 GossipSubNetwork.nodes[2460].connectionManager passiveListUpdate:vector ETV
vector 9 GossipSubNetwork.nodes[186].connectionManager passiveListUpdate:vector ETV
vector 10 GossipSubNetwork.nodes[424].connectionManager passiveListUpdate:vector ETV
vector 11 GossipSubNetwork.nodes[4355].connectionManager passiveListUpdate:vector ETV
vector 12 GossipSubNetwork.nodes[756].connectionManager passiveListUpdate:vector ETV
vector 13 GossipSubNetwork.nodes[1283].connectionManager passiveListUpdate:vector ETV
vector 14 GossipSubNetwork.nodes[2207].connectionManager passiveListUpdate:vector ETV
vector 15 GossipSubNetwork.nodes[4316].connectionManager passiveListUpdate:vector ETV
vector 16 GossipSubNetwork.nodes[1649].connectionManager passiveListUpdate:vector ETV
vector 17 GossipSubNetwork.nodes[3327].connectionManager passiveListUpdate:vector ETV
vector 18 GossipSubNetwork.nodes[2950].connectionManager passiveListUpdate:vector ETV
vector 19 GossipSubNetwork.nodes[705].connectionManager passiveListUpdate:vector ETV
vector 20 GossipSubNetwork.nodes[4715].connectionManager passiveListUpdate:vector ETV
vector 21 GossipSubNetwork.nodes[244].connectionManager passiveListUpdate:vector ETV
vector 22 GossipSubNetwork.nodes[3115].connectionManager passiveListUpdate:vector ETV
vector 23 GossipSubNetwork.nodes[4509].connectionManager passiveListUpdate:vector ETV
vector 24 GossipSubNetwork.nodes[4745].connectionManager passiveListUpdate:vector ETV
vector 25 GossipSubNetwork.nodes[336].connectionManager passiveListUpdate:vector ETV
vector 26 GossipSubNetwork.nodes[4862].connectionManager passiveListUpdate:vector ETV
vector 27 GossipSubNetwork.nodes[663].connectionManager passiveListUpdate:vector ETV
vector 28 GossipSubNetwork.nodes[3477].connectionManager passiveListUpdate:vector ETV
vector 29 GossipSubNetwork.nodes[2122].connectionManager passiveListUpdate:vector ETV
vector 30 GossipSubNetwork.nodes[4207].connectionManager passiveListUpdate:vector ETV
vector 31 GossipSubNetwork.nodes[2765].connectionManager passiveListUpdate:vector ETV
vector 32 GossipSubNetwork.nodes[599].connectionManager passiveListUpdate:vector ETV
vector 33 GossipSubNetwork.nodes[1667].connectionManager passiveListUpdate:vector ETV
vector 34 GossipSubNetwork.nodes[3783].connectionManager passiveListUpdate:vector ETV
vector 35 GossipSubNetwork.nodes[1371].connectionManager passiveListUpdate:vector ETV
vector 36 GossipSubNetwork.nodes[247].connectionManager passiveListUpdate:vector ETV
vector 37 GossipSubNetwork.nodes[551].connectionManager passiveListUpdate:vector ETV
vector 38 GossipSubNetwork.nodes[4840].connectionManager passiveListUpdate:vector ETV
vector 39 GossipSubNetwork.nodes[555].connectionManager passiveListUpdate:vector ETV
vector 40 GossipSubNetwork.nodes[1591].connectionManager passiveListUpdate:vector ETV
vector 41 GossipSubNetwork.nodes[4540].connectionManager passiveListUpdate:vector ETV
vector 42 GossipSubNetwork.nodes[707].connectionManager passiveListUpdate:vector ETV
vector 43 GossipSubNetwork.nodes[8].connectionManager passiveListUpdate:vector ETV
vector 44 GossipSubNetwork.nodes[2329].connectionManager passiveListUpdate:vector ETV
vector 45 GossipSubNetwork.nodes[1169].connectionManager passiveListUpdate:vector ETV
vector 46 GossipSubNetwork.nodes[4830].connectionManager passiveListUpdate:vector ETV
vector 47 GossipSubNetwork.nodes[2931].connectionManager passiveListUpdate:vector ETV
vector 48 GossipSubNetwork.nodes[2875].connectionManager passiveListUpdate:vector ETV
vector 49 GossipSubNetwork.nodes[644].connectionManager passiveListUpdate:vector ETV
vector 50 GossipSubNetwork.nodes[2156].connectionManager passiveListUpdate:vector ETV
vector 51 GossipSubNetwork.nodes[2391].connectionManager passiveListUpdate:vector ETV
vector 52 GossipSubNetwork.nodes[330].connectionManager passiveListUpdate:vector ETV
vector 53 GossipSubNetwork.nodes[313].connectionManager passiveListUpdate:vector ETV
vector 54 GossipSubNetwork.nodes[4365].connectionManager passiveListUpdate:vector ETV
vector 55 GossipSubNetwork.nodes[994].connectionManager passiveListUpdate:vector ETV
vector 56 GossipSubNetwork.nodes[508].connectionManager passiveListUpdate:vector ETV
vector 57 GossipSubNetwork.nodes[3710].connectionManager passiveListUpdate:vector ETV
vector 58 GossipSubNetwork.nodes[3464].connectionManager passiveListUpdate:vector ETV
vector 59 GossipSubNetwork.nodes[1707].connectionManager passiveListUpdate:vector ETV
vector 60 GossipSubNetwork.nodes[1156].connectionManager passiveListUpdate:vector ETV
vector 61 GossipSubNetwork.nodes[6].connectionManager passiveListUpdate:vector ETV
vector 62 GossipSubNetwork.nodes[2217].connectionManager passiveListUpdate:vector ETV
vector 63 GossipSubNetwork.nodes[1845].connectionManager passiveListUpdate:vector ETV
vector 64 GossipSubNetwork.nodes[1508].connectionManager passiveListUpdate:vector ETV
vector 65 GossipSubNetwork.nodes[3254].connectionManager passiveListUpdate:vector ETV
vector 66 GossipSubNetwork.nodes[3009].connectionManager passiveListUpdate:vector ETV
vector 67 GossipSubNetwork.nodes[2580].connectionManager passiveListUpdate:vector ETV
vector 68 GossipSubNetwork.nodes[10].connectionManager passiveListUpdate:vector ETV
vector 69 GossipSubNetwork.nodes[1144].connectionManager passiveListUpdate:vector ETV
vector 70 GossipSubNetwork.nodes[2340].connectionManager passiveListUpdate:vector ETV
vector 71 GossipSubNetwork.nodes[4842].connectionManager passiveListUpdate:vector ETV
vector 72 GossipSubNetwork.nodes[1304].connectionManager passiveListUpdate:vector ETV
vector 73 GossipSubNetwork.nodes[1058].connectionManager passiveListUpdate:vector ETV
vector 74 GossipSubNetwork.nodes[3294].connectionManager passiveListUpdate:vector ETV
vector 75 GossipSubNetwork.nodes[4326].connectionManager passiveListUpdate:vector ETV
vector 76 GossipSubNetwork.nodes[4550].connectionManager passiveListUpdate:vector ETV
vector 77 GossipSubNetwork.nodes[2106].connectionManager passiveListUpdate:vector ETV
vector 78 GossipSubNetwork.nodes[3812].connectionManager passiveListUpdate:vector ETV
vector 79 GossipSubNetwork.nodes[129].connectionManager passiveListUpdate:vector ETV
vector 80 GossipSubNetwork.nodes[4884].connectionManager passiveListUpdate:vector ETV
vector 81 GossipSubNetwork.nodes[4427].connectionManager passiveListUpdate:vector ETV
vector 82 GossipSubNetwork.nodes[4966].connectionManager passiveListUpdate:vector ETV
vector 83 GossipSubNetwork.nodes[3879].connectionManager passiveListUpdate:vector ETV
vector 84 GossipSubNetwork.nodes[792].connectionManager passiveListUpdate:vector ETV
vector 85 GossipSubNetwork.nodes[1664].connectionManager passiveListUpdate:vector ETV
vector 86 GossipSubNetwork.nodes[4268].connectionManager passiveListUpdate:vector ETV
vector 87 GossipSubNetwork.nodes[1784].connectionManager passiveListUpdate:vector ETV
vector 88 GossipSubNetwork.nodes[1090].connectionManager passiveListUpdate:vector ETV
vector 89 GossipSubNetwork.nodes[1600].connectionManager passiveListUpdate:vector ETV
vector 90 GossipSubNetwork.nodes[4163].connectionManager passiveListUpdate:vector ETV
vector 91 GossipSubNetwork.nodes[4073].connectionManager passiveListUpdate:vector ETV
vector 92 GossipSubNetwork.nodes[3238].connectionManager passiveListUpdate:vector ETV
vector 93 GossipSubNetwork.nodes[1879].connectionManager passiveListUpdate:vector ETV
vector 94 GossipSubNetwork.nodes[4395].connectionManager passiveListUpdate:vector ETV
vector 95 GossipSubNetwork.nodes[203].connectionManager passiveListUpdate:vector ETV
vector 96 GossipSubNetwork.nodes[459].connectionManager passiveListUpdate:vector ETV
vector 97 GossipSubNetwork.nodes[2407].connectionManager passiveListUpdate:vector ETV
vector 98 GossipSubNetwork.nodes[2947].connectionManager passiveListUpdate:vector ETV
vector 99 GossipSubNetwork.nodes[2689].connectionManager passiveListUpdate:vector ETV
vector 100 GossipSubNetwork.nodes[957].connectionManager passiveListUpdate:vector ETV
vector 101 GossipSubNetwork.nodes[4656].connectionManager passiveListUpdate:vector ETV
vector 102 GossipSubNetwork.nodes[2427].connectionManager passiveListUpdate:vector ETV
vector 103 GossipSubNetwork.nodes[3128].connectionManager passiveListUpdate:vector ETV
vector 104 GossipSubNetwork.nodes[2801].connectionManager passiveListUpdate:vector ETV
vector 105 GossipSubNetwork.nodes[4279].connectionManager passiveListUpdate:vector ETV
vector 106 GossipSubNetwork.nodes[3957].connectionManager passiveListUpdate:vector ETV
vector 107 GossipSubNetwork.nodes[4641].connectionManager passiveListUpdate:vector ETV
vector 108 GossipSubNetwork.nodes[4577].connectionManager passiveListUpdate:vector ETV
vector 109 GossipSubNetwork.nodes[1682].connectionManager passiveListUpdate:vector ETV
vector 110 GossipSubNetwork.nodes[1584].connectionManager passiveListUpdate:vector ETV
vector 111 GossipSubNetwork.nodes[2472].connectionManager passiveListUpdate:vector ETV
vector 112 GossipSubNetwork.nodes[1060].connectionManager passiveListUpdate:vector ETV
vector 113 GossipSubNetwork.nodes[4837].connectionManager passiveListUpdate:vector ETV
vector 114 GossipSubNetwork.nodes[1285].connectionManager passiveListUpdate:vector ETV
vector 115 GossipSubNetwork.nodes[1626].connectionManager passiveListUpdate:vector ETV
vector 116 GossipSubNetwork.nodes[2380].connectionManager passiveListUpdate:vector ETV
vector 117 GossipSubNetwork.nodes[3669].connectionManager passiveListUpdate:vector ETV
vector 118 GossipSubNetwork.nodes[3614].connectionManager passiveListUpdate:vector ETV
vector 119 GossipSubNetwork.nodes[1806].connectionManager passiveListUpdate:vector ETV
vector 120 GossipSubNetwork.nodes[685].connectionManager passiveListUpdate:vector ETV
vector 121 GossipSubNetwork.nodes[3315].connectionManager passiveListUpdate:vector ETV
vector 122 GossipSubNetwork.nodes[1788].connectionManager passiveListUpdate:vector ETV
vector 123 GossipSubNetwork.nodes[227].connectionManager passiveListUpdate:vector ETV
vector 124 GossipSubNetwork.nodes[3384].connectionManager passiveListUpdate:vector ETV
vector 125 GossipSubNetwork.nodes[1422].connectionManager passiveListUpdate:vector ETV
vector 126 GossipSubNetwork.nodes[2011].connectionManager passiveListUpdate:vector ETV
vector 127 GossipSubNetwork.nodes[4429].connectionManager passiveListUpdate:vector ETV
vector 128 GossipSubNetwork.nodes[2597].connectionManager passiveListUpdate:vector ETV
vector 129 GossipSubNetwork.nodes[4704].connectionManager passiveListUpdate:vector ETV
vector 130 GossipSubNetwork.nodes[1498].connectionManager passiveListUpdate:vector ETV
vector 131 GossipSubNetwork.nodes[3175].connectionManager passiveListUpdate:vector ETV
vector 132 GossipSubNetwork.nodes[3563].connectionManager passiveListUpdate:vector ETV
vector 133 GossipSubNetwork.nodes[4339].connectionManager passiveListUpdate:vector ETV
vector 134 GossipSubNetwork.nodes[1190].connectionManager passiveListUpdate:vector ETV
vector 135 GossipSubNetwork.nodes[221].connectionManager passiveListUpdate:vector ETV
vector 136 GossipSubNetwork.nodes[4719].connectionManager passiveListUpdate:vector ETV
vector 137 GossipSubNetwork.nodes[2910].connectionManager passiveListUpdate:vector ETV
vector 138 GossipSubNetwork.nodes[2868].connectionManager passiveListUpdate:vector ETV
vector 139 GossipSubNetwork.nodes[681].connectionManager passiveListUpdate:vector ETV
vector 140 GossipSubNetwork.nodes[143].connectionManager passiveListUpdate:vector ETV
vector 141 GossipSubNetwork.nodes[2860].connectionManager passiveListUpdate:vector ETV
vector 142 GossipSubNetwork.nodes[2867].connectionManager passiveListUpdate:vector ETV
vector 143 GossipSubNetwork.nodes[4468].connectionManager passiveListUpdate:vector ETV
vector 144 GossipSubNetwork.nodes[4050].connectionManager passiveListUpdate:vector ETV
vector 145 GossipSubNetwork.nodes[3528].connectionManager passiveListUpdate:vector ETV
vector 146 GossipSubNetwork.nodes[547].connectionManager passiveListUpdate:vector ETV
vector 147 GossipSubNetwork.nodes[2123].connectionManager passiveListUpdate:vector ETV
vector 148 GossipSubNetwork.nodes[2613].connectionManager passiveListUpdate:vector ETV
vector 149 GossipSubNetwork.nodes[2644].connectionManager passiveListUpdate:vector ETV
vector 150 GossipSubNetwork.nodes[3284].connectionManager passiveListUpdate:vector ETV
vector 151 GossipSubNetwork.nodes[69].connectionManager passiveListUpdate:vector ETV
vector 152 GossipSubNetwork.nodes[2840].connectionManager passiveListUpdate:vector ETV
vector 153 GossipSubNetwork.nodes[1556].connectionManager passiveListUpdate:vector ETV
vector 154 GossipSubNetwork.nodes[1878].connectionManager passiveListUpdate:vector ETV
vector 155 GossipSubNetwork.nodes[398].connectionManager passiveListUpdate:vector ETV
vector 156 GossipSubNetwork.nodes[215].connectionManager passiveListUpdate:vector ETV
vector 157 GossipSubNetwork.nodes[4588].connectionManager passiveListUpdate:vector ETV
vector 158 GossipSubNetwork.nodes[4407].connectionManager passiveListUpdate:vector ETV
vector 159 GossipSubNetwork.nodes[999].connectionManager passiveListUpdate:vector ETV
vector 160 GossipSubNetwork.nodes[2148].connectionManager passiveListUpdate:vector ETV
vector 161 GossipSubNetwork.nodes[2020].connectionManager passiveListUpdate:vector ETV
vector 162 GossipSubNetwork.nodes[915].connectionManager passiveListUpdate:vector ETV
vector 163 GossipSubNetwork.nodes[3249].connectionManager passiveListUpdate:vector ETV
vector 164 GossipSubNetwork.nodes[1099].connectionManager passiveListUpdate:vector ETV
vector 165 GossipSubNetwork.nodes[944].connectionManager passiveListUpdate:vector ETV
vector 166 GossipSubNetwork.nodes[2285].connectionManager passiveListUpdate:vector ETV
vector 167 GossipSubNetwork.nodes[2676].connectionManager passiveListUpdate:vector ETV
vector 168 GossipSubNetwork.nodes[1303].connectionManager passiveListUpdate:vector ETV
vector 169 GossipSubNetwork.nodes[961].connectionManager passiveListUpdate:vector ETV
vector 170 GossipSubNetwork.nodes[1809].connectionManager passiveListUpdate:vector ETV
vector 171 GossipSubNetwork.nodes[51].connectionManager passiveListUpdate:vector ETV
vector 172 GossipSubNetwork.nodes[4816].connectionManager passiveListUpdate:vector ETV
vector 173 GossipSubNetwork.nodes[1994].connectionManager passiveListUpdate:vector ETV
vector 174 GossipSubNetwork.nodes[3432].connectionManager passiveListUpdate:vector ETV
vector 175 GossipSubNetwork.nodes[3398].connectionManager passiveListUpdate:vector ETV
vector 176 GossipSubNetwork.nodes[2721].connectionManager passiveListUpdate:vector ETV
vector 177 GossipSubNetwork.nodes[3874].connectionManager passiveListUpdate:vector ETV
vector 178 GossipSubNetwork.nodes[4401].connectionManager passiveListUpdate:vector ETV
vector 179 GossipSubNetwork.nodes[1751].connectionManager passiveListUpdate:vector ETV
vector 180 GossipSubNetwork.nodes[1677].connectionManager passiveListUpdate:vector ETV
vector 181 GossipSubNetwork.nodes[82].connectionManager passiveListUpdate:vector ETV
vector 182 GossipSubNetwork.nodes[4479].connectionManager passiveListUpdate:vector ETV
vector 183 GossipSubNetwork.nodes[218].connectionManager passiveListUpdate:vector ETV
vector 184 GossipSubNetwork.nodes[2013].connectionManager passiveListUpdate:vector ETV
vector 185 GossipSubNetwork.nodes[1597].connectionManager passiveListUpdate:vector ETV
vector 186 GossipSubNetwork.nodes[214].connectionManager passiveListUpdate:vector ETV
vector 187 GossipSubNetwork.nodes[3756].connectionManager passiveListUpdate:vector ETV
vector 188 GossipSubNetwork.nodes[187].connectionManager passiveListUpdate:vector ETV
vector 189 GossipSubNetwork.nodes[2229].connectionManager passiveListUpdate:vector ETV
vector 190 GossipSubNetwork.nodes[1964].connectionManager passiveListUpdate:vector ETV
vector 191 GossipSubNetwork.nodes[1480].connectionManager passiveListUpdate:vector ETV
vector 192 GossipSubNetwork.nodes[2858].connectionManager passiveListUpdate:vector ETV
vector 193 GossipSubNetwork.nodes[352].connectionManager passiveListUpdate:vector ETV
vector 194 GossipSubNetwork.nodes[2219].connectionManager passiveListUpdate:vector ETV
vector 195 GossipSubNetwork.nodes[2209].connectionManager passiveListUpdate:vector ETV
vector 196 GossipSubNetwork.nodes[1871].connectionManager passiveListUpdate:vector ETV
vector 197 GossipSubNetwork.nodes[4457].connectionManager passiveListUpdate:vector ETV
vector 198 GossipSubNetwork.nodes[4806].connectionManager passiveListUpdate:vector ETV
vector 199 GossipSubNetwork.nodes[3724].connectionManager passiveListUpdate:vector ETV
vector 200 GossipSubNetwork.nodes[2923].connectionManager passiveListUpdate:vector ETV
vector 201 GossipSubNetwork.nodes[684].connectionManager passiveListUpdate:vector ETV
vector 202 GossipSubNetwork.nodes[201].connectionManager passiveListUpdate:vector ETV
vector 203 GossipSubNetwork.nodes[2065].connectionManager passiveListUpdate:vector ETV
vector 204 GossipSubNetwork.nodes[3681].connectionManager passiveListUpdate:vector ETV
vector 205 GossipSubNetwork.nodes[4708].connectionManager passiveListUpdate:vector ETV
vector 206 GossipSubNetwork.nodes[2912].connectionManager passiveListUpdate:vector ETV
vector 207 GossipSubNetwork.nodes[2140].connectionManager passiveListUpdate:vector ETV
vector 208 GossipSubNetwork.nodes[1238].connectionManager passiveListUpdate:vector ETV
vector 209 GossipSubNetwork.nodes[2484].connectionManager passiveListUpdate:vector ETV
vector 210 GossipSubNetwork.nodes[3186].connectionManager passiveListUpdate:vector ETV
vector 211 GossipSubNetwork.nodes[2624].connectionManager passiveListUpdate:vector ETV
vector 212 GossipSubNetwork.nodes[2485].connectionManager passiveListUpdate:vector ETV
vector 213 GossipSubNetwork.nodes[3391].connectionManager passiveListUpdate:vector ETV
vector 214 GossipSubNetwork.nodes[563].connectionManager passiveListUpdate:vector ETV
vector 215 GossipSubNetwork.nodes[2758].connectionManager passiveListUpdate:vector ETV
vector 216 GossipSubNetwork.nodes[2575].connectionManager passiveListUpdate:vector ETV
vector 217 GossipSubNetwork.nodes[633].connectionManager passiveListUpdate:vector ETV
vector 218 GossipSubNetwork.nodes[847].connectionManager passiveListUpdate:vector ETV
vector 219 GossipSubNetwork.nodes[3795].connectionManager passiveListUpdate:vector ETV
vector 220 GossipSubNetwork.nodes[2296].connectionManager passiveListUpdate:vector ETV
vector 221 GossipSubNetwork.nodes[584].connectionManager passiveListUpdate:vector ETV
vector 222 GossipSubNetwork.nodes[2278].connectionManager passiveListUpdate:vector ETV
vector 223 GossipSubNetwork.nodes[4694].connectionManager passiveListUpdate:vector ETV
vector 224 GossipSubNetwork.nodes[1996].connectionManager passiveListUpdate:vector ETV
vector 225 GossipSubNetwork.nodes[2288].connectionManager passiveListUpdate:vector ETV
vector 226 GossipSubNetwork.nodes[529].connectionManager passiveListUpdate:vector ETV
vector 227 GossipSubNetwork.nodes[3105].connectionManager passiveListUpdate:vector ETV
vector 228 GossipSubNetwork.nodes[4226].connectionManager passiveListUpdate:vector ETV
vector 229 GossipSubNetwork.nodes[265].connectionManager passiveListUpdate:vector ETV
vector 230 GossipSubNetwork.nodes[1766].connectionManager passiveListUpdate:vector ETV
vector 231 GossipSubNetwork.nodes[119].connectionManager passiveListUpdate:vector ETV
vector 232 GossipSubNetwork.nodes[1948].connectionManager passiveListUpdate:vector ETV
vector 233 GossipSubNetwork.nodes[3986].connectionManager passiveListUpdate:vector ETV
vector 234 GossipSubNetwork.nodes[3770].connectionManager passiveListUpdate:vector ETV
vector 235 GossipSubNetwork.nodes[3221].connectionManager passiveListUpdate:vector ETV
vector 236 GossipSubNetwork.nodes[731].connectionManager passiveListUpdate:vector ETV
vector 237 GossipSubNetwork.nodes[3689].connectionManager passiveListUpdate:vector ETV
vector 238 GossipSubNetwork.nodes[1420].connectionManager passiveListUpdate:vector ETV
vector 239 GossipSubNetwork.nodes[4106].connectionManager passiveListUpdate:vector ETV
vector 240 GossipSubNetwork.nodes[4937].connectionManager passiveListUpdate:vector ETV
vector 241 GossipSubNetwork.nodes[4855].connectionManager passiveListUpdate:vector ETV
vector 242 GossipSubNetwork.nodes[1225].connectionManager passiveListUpdate:vector ETV
vector 243 GossipSubNetwork.nodes[2239].connectionManager passiveListUpdate:vector ETV
vector 244 GossipSubNetwork.nodes[3623].connectionManager passiveListUpdate:vector ETV
vector 245 GossipSubNetwork.nodes[839].connectionManager passiveListUpdate:vector ETV
vector 246 GossipSubNetwork.nodes[3455].connectionManager passiveListUpdate:vector ETV
vector 247 GossipSubNetwork.nodes[2112].connectionManager passiveListUpdate:vector ETV
vector 248 GossipSubNetwork.nodes[1408].connectionManager passiveListUpdate:vector ETV
vector 249 GossipSubNetwork.nodes[3014].connectionManager passiveListUpdate:vector ETV
vector 250 GossipSubNetwork.nodes[3067].connectionManager passiveListUpdate:vector ETV
vector 251 GossipSubNetwork.nodes[238].connectionManager passiveListUpdate:vector ETV
vector 252 GossipSubNetwork.nodes[3299].connectionManager passiveListUpdate:vector ETV
vector 253 GossipSubNetwork.nodes[370].connectionManager passiveListUpdate:vector ETV
vector 254 GossipSubNetwork.nodes[1017].connectionManager passiveListUpdate:vector ETV
vector 255 GossipSubNetwork.nodes[2070].connectionManager passiveListUpdate:vector ETV
vector 256 GossipSubNetwork.nodes[3637].connectionManager passiveListUpdate:vector ETV
vector 257 GossipSubNetwork.nodes[3675].connectionManager passiveListUpdate:vector ETV
vector 258 GossipSubNetwork.nodes[4551].connectionManager passiveListUpdate:vector ETV
vector 259 GossipSubNetwork.nodes[1951].connectionManager passiveListUpdate:vector ETV
vector 260 GossipSubNetwork.nodes[642].connectionManager passiveListUpdate:vector ETV
vector 261 GossipSubNetwork.nodes[4068].connectionManager passiveListUpdate:vector ETV
vector 262 GossipSubNetwork.nodes[846].connectionManager passiveListUpdate:vector ETV
vector 263 GossipSubNetwork.nodes[3625].connectionManager passiveListUpdate:vector ETV
vector 264 GossipSubNetwork.nodes[453].connectionManager passiveListUpdate:vector ETV
vector 265 GossipSubNetwork.nodes[1037].connectionManager passiveListUpdate:vector ETV
vector 266 GossipSubNetwork.nodes[3741].connectionManager passiveListUpdate:vector ETV
vector 267 GossipSubNetwork.nodes[4324].connectionManager passiveListUpdate:vector ETV
vector 268 GossipSubNetwork.nodes[3360].connectionManager passiveListUpdate:vector ETV
vector 269 GossipSubNetwork.nodes[3414].connectionManager passiveListUpdate:vector ETV
vector 270 GossipSubNetwork.nodes[2836].connectionManager passiveListUpdate:vector ETV
vector 271 GossipSubNetwork.nodes[2006].connectionManager passiveListUpdate:vector ETV
vector 272 GossipSubNetwork.nodes[1553].connectionManager passiveListUpdate:vector ETV
vector 273 GossipSubNetwork.nodes[1450].connectionManager passiveListUpdate:vector ETV
vector 274 GossipSubNetwork.nodes[3330].connectionManager passiveListUpdate:vector ETV
vector 275 GossipSubNetwork.nodes[179].connectionManager passiveListUpdate:vector ETV
vector 276 GossipSubNetwork.nodes[2412].connectionManager passiveListUpdate:vector ETV
vector 277 GossipSubNetwork.nodes[2927].connectionManager passiveListUpdate:vector ETV
vector 278 GossipSubNetwork.nodes[1646].connectionManager passiveListUpdate:vector ETV
vector 279 GossipSubNetwork.nodes[4907].connectionManager passiveListUpdate:vector ETV
vector 280 GossipSubNetwork.nodes[3059].connectionManager passiveListUpdate:vector ETV
vector 281 GossipSubNetwork.nodes[2729].connectionManager passiveListUpdate:vector ETV
vector 282 GossipSubNetwork.nodes[4838].connectionManager passiveListUpdate:vector ETV
vector 283 GossipSubNetwork.nodes[4437].connectionManager passiveListUpdate:vector ETV
vector 284 GossipSubNetwork.nodes[1884].connectionManager passiveListUpdate:vector ETV
vector 285 GossipSubNetwork.nodes[76].connectionManager passiveListUpdate:vector ETV
vector 286 GossipSubNetwork.nodes[4347].connectionManager passiveListUpdate:vector ETV
vector 287 GossipSubNetwork.nodes[1357].connectionManager passiveListUpdate:vector ETV
vector 288 GossipSubNetwork.nodes[4125].connectionManager passiveListUpdate:vector ETV
vector 289 GossipSubNetwork.nodes[3676].connectionManager passiveListUpdate:vector ETV
vector 290 GossipSubNetwork.nodes[200].connectionManager passiveListUpdate:vector ETV
vector 291 GossipSubNetwork.nodes[3373].connectionManager passiveListUpdate:vector ETV
vector 292 GossipSubNetwork.nodes[3905].connectionManager passiveListUpdate:vector ETV
vector 293 GossipSubNetwork.nodes[1483].connectionManager passiveListUpdate:vector ETV
vector 294 GossipSubNetwork.nodes[3312].connectionManager passiveListUpdate:vector ETV
vector 295 GossipSubNetwork.nodes[516].connectionManager passiveListUpdate:vector ETV
vector 296 GossipSubNetwork.nodes[4100].connectionManager passiveListUpdate:vector ETV
vector 297 GossipSubNetwork.nodes[852].connectionManager passiveListUpdate:vector ETV
vector 298 GossipSubNetwork.nodes[616].connectionManager passiveListUpdate:vector ETV
vector 299 GossipSubNetwork.nodes[4104].connectionManager passiveListUpdate:vector ETV
vector 300 GossipSubNetwork.nodes[2926].connectionManager passiveListUpdate:vector ETV
vector 301 GossipSubNetwork.nodes[1199].connectionManager passiveListUpdate:vector ETV
vector 302 GossipSubNetwork.nodes[2509].connectionManager passiveListUpdate:vector ETV
vector 303 GossipSubNetwork.nodes[4306].connectionManager passiveListUpdate:vector ETV
vector 304 GossipSubNetwork.nodes[66].connectionManager passiveListUpdate:vector ETV
vector 305 GossipSubNetwork.nodes[3431].connectionManager passiveListUpdate:vector ETV
vector 306 GossipSubNetwork.nodes[158].connectionManager passiveListUpdate:vector ETV
vector 307 GossipSubNetwork.nodes[3241].connectionManager passiveListUpdate:vector ETV
vector 308 GossipSubNetwork.nodes[1413].connectionManager passiveListUpdate:vector ETV
vector 309 GossipSubNetwork.nodes[1716].connectionManager passiveListUpdate:vector ETV
vector 310 GossipSubNetwork.nodes[3643].connectionManager passiveListUpdate:vector ETV
vector 311 GossipSubNetwork.nodes[1259].connectionManager passiveListUpdate:vector ETV
vector 312 GossipSubNetwork.nodes[1586].connectionManager passiveListUpdate:vector ETV
vector 313 GossipSubNetwork.nodes[4238].connectionManager passiveListUpdate:vector ETV
vector 314 GossipSubNetwork.nodes[242].connectionManager passiveListUpdate:vector ETV
vector 315 GossipSubNetwork.nodes[2861].connectionManager passiveListUpdate:vector ETV
vector 316 GossipSubNetwork.nodes[2271].connectionManager passiveListUpdate:vector ETV
vector 317 GossipSubNetwork.nodes[3410].connectionManager passiveListUpdate:vector ETV
vector 318 GossipSubNetwork.nodes[4900].connectionManager passiveListUpdate:vector ETV
vector 319 GossipSubNetwork.nodes[2586].connectionManager passiveListUpdate:vector ETV
vector 320 GossipSubNetwork.nodes[1249].connectionManager passiveListUpdate:vector ETV
vector 321 GossipSubNetwork.nodes[2117].connectionManager passiveListUpdate:vector ETV
vector 322 GossipSubNetwork.nodes[1204].connectionManager passiveListUpdate:vector ETV
vector 323 GossipSubNetwork.nodes[1277].connectionManager passiveListUpdate:vector ETV
vector 324 GossipSubNetwork.nodes[3378].connectionManager passiveListUpdate:vector ETV
vector 325 GossipSubNetwork.nodes[3608].connectionManager passiveListUpdate:vector ETV
vector 326 GossipSubNetwork.nodes[1315].connectionManager passiveListUpdate:vector ETV
vector 327 GossipSubNetwork.nodes[4681].connectionManager passiveListUpdate:vector ETV
vector 328 GossipSubNetwork.nodes[3864].connectionManager passiveListUpdate:vector ETV
vector 329 GossipSubNetwork.nodes[77].connectionManager passiveListUpdate:vector ETV
vector 330 GossipSubNetwork.nodes[2512].connectionManager passiveListUpdate:vector ETV
vector 331 GossipSubNetwork.nodes[1301].connectionManager passiveListUpdate:vector ETV
vector 332 GossipSubNetwork.nodes[4767].connectionManager passiveListUpdate:vector ETV
vector 333 GossipSubNetwork.nodes[3866].connectionManager passiveListUpdate:vector ETV
vector 334 GossipSubNetwork.nodes[1849].connectionManager passiveListUpdate:vector ETV
vector 335 GossipSubNetwork.nodes[874].connectionManager passiveListUpdate:vector ETV
vector 336 GossipSubNetwork.nodes[4183].connectionManager passiveListUpdate:vector ETV
vector 337 GossipSubNetwork.nodes[3318].connectionManager passiveListUpdate:vector ETV
vector 338 GossipSubNetwork.nodes[4974].connectionManager passiveListUpdate:vector ETV
vector 339 GossipSubNetwork.nodes[317].connectionManager passiveListUpdate:vector ETV
vector 340 GossipSubNetwork.nodes[4592].connectionManager passiveListUpdate:vector ETV
vector 341 GossipSubNetwork.nodes[1473].connectionManager passiveListUpdate:vector ETV
vector 342 GossipSubNetwork.nodes[3871].connectionManager passiveListUpdate:vector ETV
vector 343 GossipSubNetwork.nodes[4173].connectionManager passiveListUpdate:vector ETV
vector 344 GossipSubNetwork.nodes[1440].connectionManager passiveListUpdate:vector ETV
vector 345 GossipSubNetwork.nodes[4088].connectionManager passiveListUpdate:vector ETV
vector 346 GossipSubNetwork.nodes[38].connectionManager passiveListUpdate:vector ETV
vector 347 GossipSubNetwork.nodes[1247].connectionManager passiveListUpdate:vector ETV
vector 348 GossipSubNetwork.nodes[3696].connectionManager passiveListUpdate:vector ETV
vector 349 GossipSubNetwork.nodes[4280].connectionManager passiveListUpdate:vector ETV
vector 350 GossipSubNetwork.nodes[1908].connectionManager passiveListUpdate:vector ETV
vector 351 GossipSubNetwork.nodes[2642].connectionManager passiveListUpdate:vector ETV
vector 352 GossipSubNetwork.nodes[557].connectionManager passiveListUpdate:vector ETV
vector 353 GossipSubNetwork.nodes[3102].connectionManager passiveListUpdate:vector ETV
vector 354 GossipSubNetwork.nodes[979].connectionManager passiveListUpdate:vector ETV
vector 355 GossipSubNetwork.nodes[647].connectionManager passiveListUpdate:vector ETV
vector 356 GossipSubNetwork.nodes[2075].connectionManager passiveListUpdate:vector ETV
vector 357 GossipSubNetwork.nodes[2024].connectionManager passiveListUpdate:vector ETV
vector 358 GossipSubNetwork.nodes[1876].connectionManager passiveListUpdate:vector ETV
vector 359 GossipSubNetwork.nodes[2803].connectionManager passiveListUpdate:vector ETV
vector 360 GossipSubNetwork.nodes[1831].connectionManager passiveListUpdate:vector ETV
vector 361 GossipSubNetwork.nodes[3357].connectionManager passiveListUpdate:vector ETV
vector 362 GossipSubNetwork.nodes[3071].connectionManager passiveListUpdate:vector ETV
vector 363 GossipSubNetwork.nodes[3994].connectionManager passiveListUpdate:vector ETV
vector 364 GossipSubNetwork.nodes[1500].connectionManager passiveListUpdate:vector ETV
vector 365 GossipSubNetwork.nodes[2956].connectionManager passiveListUpdate:vector ETV
vector 366 GossipSubNetwork.nodes[4300].connectionManager passiveListUpdate:vector ETV
vector 367 GossipSubNetwork.nodes[2025].connectionManager passiveListUpdate:vector ETV
vector 368 GossipSubNetwork.nodes[420].connectionManager passiveListUpdate:vector ETV
vector 369 GossipSubNetwork.nodes[4912].connectionManager passiveListUpdate:vector ETV
vector 370 GossipSubNetwork.nodes[3997].connectionManager passiveListUpdate:vector ETV
vector 371 GossipSubNetwork.nodes[2411].connectionManager passiveListUpdate:vector ETV
vector 372 GossipSubNetwork.nodes[949].connectionManager passiveListUpdate:vector ETV
vector 373 GossipSubNetwork.nodes[1340].connectionManager passiveListUpdate:vector ETV
vector 374 GossipSubNetwork.nodes[3604].connectionManager passiveListUpdate:vector ETV
vector 375 GossipSubNetwork.nodes[1661].connectionManager passiveListUpdate:vector ETV
vector 376 GossipSubNetwork.nodes[4969].connectionManager passiveListUpdate:vector ETV
vector 377 GossipSubNetwork.nodes[2604].connectionManager passiveListUpdate:vector ETV
vector 378 GossipSubNetwork.nodes[4631].connectionManager passiveListUpdate:vector ETV
vector 379 GossipSubNetwork.nodes[3884].connectionManager passiveListUpdate:vector ETV
vector 380 GossipSubNetwork.nodes[1735].connectionManager passiveListUpdate:vector ETV
vector 381 GossipSubNetwork.nodes[2576].connectionManager passiveListUpdate:vector ETV
vector 382 GossipSubNetwork.nodes[2339].connectionManager passiveListUpdate:vector ETV
vector 383 GossipSubNetwork.nodes[2818].connectionManager passiveListUpdate:vector ETV
vector 384 GossipSubNetwork.nodes[2029].connectionManager passiveListUpdate:vector ETV
vector 385 GossipSubNetwork.nodes[4167].connectionManager passiveListUpdate:vector ETV
vector 386 GossipSubNetwork.nodes[2637].connectionManager passiveListUpdate:vector ETV
vector 387 GossipSubNetwork.nodes[3184].connectionManager passiveListUpdate:vector ETV
vector 388 GossipSubNetwork.nodes[4659].connectionManager passiveListUpdate:vector ETV
vector 389 GossipSubNetwork.nodes[1396].connectionManager passiveListUpdate:vector ETV
vector 390 GossipSubNetwork.nodes[3467].connectionManager passiveListUpdate:vector ETV
vector 391 GossipSubNetwork.nodes[368].connectionManager passiveListUpdate:vector ETV
vector 392 GossipSubNetwork.nodes[1710].connectionManager passiveListUpdate:vector ETV
vector 393 GossipSubNetwork.nodes[3519].connectionManager passiveListUpdate:vector ETV
vector 394 GossipSubNetwork.nodes[854].connectionManager passiveListUpdate:vector ETV
vector 395 GossipSubNetwork.nodes[3662].connectionManager passiveListUpdate:vector ETV
vector 396 GossipSubNetwork.nodes[2531].connectionManager passiveListUpdate:vector ETV
vector 397 GossipSubNetwork.nodes[1041].connectionManager passiveListUpdate:vector ETV
vector 398 GossipSubNetwork.nodes[4618].connectionManager passiveListUpdate:vector ETV
vector 399 GossipSubNetwork.nodes[1287].connectionManager passiveListUpdate:vector ETV
vector 400 GossipSubNetwork.nodes[1783].connectionManager passiveListUpdate:vector ETV
vector 401 GossipSubNetwork.nodes[3537].connectionManager passiveListUpdate:vector ETV
vector 402 GossipSubNetwork.nodes[4991].connectionManager passiveListUpdate:vector ETV
vector 403 GossipSubNetwork.nodes[4335].connectionManager passiveListUpdate:vector ETV
vector 404 GossipSubNetwork.nodes[1207].connectionManager passiveListUpdate:vector ETV
vector 405 GossipSubNetwork.nodes[701].connectionManager passiveListUpdate:vector ETV
vector 406 GossipSubNetwork.nodes[967].connectionManager passiveListUpdate:vector ETV
vector 407 GossipSubNetwork.nodes[2212].connectionManager passiveListUpdate:vector ETV
vector 408 GossipSubNetwork.nodes[2713].connectionManager passiveListUpdate:vector ETV
vector 409 GossipSubNetwork.nodes[1224].connectionManager passiveListUpdate:vector ETV
vector 410 GossipSubNetwork.nodes[4263].connectionManager passiveListUpdate:vector ETV
vector 411 GossipSubNetwork.nodes[4128].connectionManager passiveListUpdate:vector ETV
vector 412 GossipSubNetwork.nodes[909].connectionManager passiveListUpdate:vector ETV
vector 413 GossipSubNetwork.nodes[1470].connectionManager passiveListUpdate:vector ETV
vector 414 GossipSubNetwork.nodes[3236].connectionManager passiveListUpdate:vector ETV
vector 415 GossipSubNetwork.nodes[1563].connectionManager passiveListUpdate:vector ETV
vector 416 GossipSubNetwork.nodes[4189].connectionManager passiveListUpdate:vector ETV
vector 417 GossipSubNetwork.nodes[362].connectionManager passiveListUpdate:vector ETV
vector 418 GossipSubNetwork.nodes[135].connectionManager passiveListUpdate:vector ETV
vector 419 GossipSubNetwork.nodes[2221].connectionManager passiveListUpdate:vector ETV
vector 420 GossipSubNetwork.nodes[2817].connectionManager passiveListUpdate:vector ETV
vector 421 GossipSubNetwork.nodes[1048].connectionManager passiveListUpdate:vector ETV
vector 422 GossipSubNetwork.nodes[2205].connectionManager passiveListUpdate:vector ETV
vector 423 GossipSubNetwork.nodes[124].connectionManager passiveListUpdate:vector ETV
vector 424 GossipSubNetwork.nodes[1416].connectionManager passiveListUpdate:vector ETV
vector 425 GossipSubNetwork.nodes[197].connectionManager passiveListUpdate:vector ETV
vector 426 GossipSubNetwork.nodes[3998].connectionManager passiveListUpdate:vector ETV
vector 427 GossipSubNetwork.nodes[2647].connectionManager passiveListUpdate:vector ETV
vector 428 GossipSubNetwork.nodes[483].connectionManager passiveListUpdate:vector ETV
vector 429 GossipSubNetwork.nodes[2487].connectionManager passiveListUpdate:vector ETV
vector 430 GossipSubNetwork.nodes[1847].connectionManager passiveListUpdate:vector ETV
vector 431 GossipSubNetwork.nodes[3172].connectionManager passiveListUpdate:vector ETV
vector 432 GossipSubNetwork.nodes[2047].connectionManager passiveListUpdate:vector ETV
vector 433 GossipSubNetwork.nodes[2718].connectionManager passiveListUpdate:vector ETV
vector 434 GossipSubNetwork.nodes[4357].connectionManager passiveListUpdate:vector ETV
vector 435 GossipSubNetwork.nodes[2180].connectionManager passiveListUpdate:vector ETV
vector 436 GossipSubNetwork.nodes[100].connectionManager passiveListUpdate:vector ETV
vector 437 GossipSubNetwork.nodes[2319].connectionManager passiveListUpdate:vector ETV
vector 438 GossipSubNetwork.nodes[3336].connectionManager passiveListUpdate:vector ETV
vector 439 GossipSubNetwork.nodes[1289].connectionManager passiveListUpdate:vector ETV
vector 440 GossipSubNetwork.nodes[1731].connectionManager passiveListUpdate:vector ETV
vector 441 GossipSubNetwork.nodes[3975].connectionManager passiveListUpdate:vector ETV
vector 442 GossipSubNetwork.nodes[3597].connectionManager passiveListUpdate:vector ETV
vector 443 GossipSubNetwork.nodes[1859].connectionManager passiveListUpdate:vector ETV
vector 444 GossipSubNetwork.nodes[2951].connectionManager passiveListUpdate:vector ETV
vector 445 GossipSubNetwork.nodes[2962].connectionManager passiveListUpdate:vector ETV
vector 446 GossipSubNetwork.nodes[366].connectionManager passiveListUpdate:vector ETV
vector 447 GossipSubNetwork.nodes[2834].connectionManager passiveListUpdate:vector ETV
vector 448 GossipSubNetwork.nodes[4702].connectionManager passiveListUpdate:vector ETV
vector 449 GossipSubNetwork.nodes[1094].connectionManager passiveListUpdate:vector ETV
vector 450 GossipSubNetwork.nodes[2723].connectionManager passiveListUpdate:vector ETV
vector 451 GossipSubNetwork.nodes[3911].connectionManager passiveListUpdate:vector ETV
vector 452 GossipSubNetwork.nodes[2097].connectionManager passiveListUpdate:vector ETV
vector 453 GossipSubNetwork.nodes[1399].connectionManager passiveListUpdate:vector ETV
vector 454 GossipSubNetwork.nodes[2981].connectionManager passiveListUpdate:vector ETV
vector 455 GossipSubNetwork.nodes[1015].connectionManager passiveListUpdate:vector ETV
vector 456 GossipSubNetwork.nodes[2378].connectionManager passiveListUpdate:vector ETV
vector 457 GossipSubNetwork.nodes[4632].connectionManager passiveListUpdate:vector ETV
vector 458 GossipSubNetwork.nodes[3908].connectionManager passiveListUpdate:vector ETV
vector 459 GossipSubNetwork.nodes[1777].connectionManager passiveListUpdate:vector ETV
vector 460 GossipSubNetwork.nodes[1329].connectionManager passiveListUpdate:vector ETV
vector 461 GossipSubNetwork.nodes[2589].connectionManager passiveListUpdate:vector ETV
vector 462 GossipSubNetwork.nodes[1364].connectionManager passiveListUpdate:vector ETV
vector 463 GossipSubNetwork.nodes[740].connectionManager passiveListUpdate:vector ETV
vector 464 GossipSubNetwork.nodes[1001].connectionManager passiveListUpdate:vector ETV
vector 465 GossipSubNetwork.nodes[3351].connectionManager passiveListUpdate:vector ETV
vector 466 GossipSubNetwork.nodes[3210].connectionManager passiveListUpdate:vector ETV
vector 467 GossipSubNetwork.nodes[1055].connectionManager passiveListUpdate:vector ETV
vector 468 GossipSubNetwork.nodes[1327].connectionManager passiveListUpdate:vector ETV
vector 469 GossipSubNetwork.nodes[2104].connectionManager passiveListUpdate:vector ETV
vector 470 GossipSubNetwork.nodes[412].connectionManager passiveListUpdate:vector ETV
vector 471 GossipSubNetwork.nodes[1615].connectionManager passiveListUpdate:vector ETV
vector 472 GossipSubNetwork.nodes[3556].connectionManager passiveListUpdate:vector ETV
vector 473 GossipSubNetwork.nodes[1407].connectionManager passiveListUpdate:vector ETV
vector 474 GossipSubNetwork.nodes[4645].connectionManager passiveListUpdate:vector ETV
vector 475 GossipSubNetwork.nodes[1752].connectionManager passiveListUpdate:vector ETV
vector 476 GossipSubNetwork.nodes[796].connectionManager passiveListUpdate:vector ETV
vector 477 GossipSubNetwork.nodes[3609].connectionManager passiveListUpdate:vector ETV
vector 478 GossipSubNetwork.nodes[1982].connectionManager passiveListUpdate:vector ETV
vector 479 GossipSubNetwork.nodes[3535].connectionManager passiveListUpdate:vector ETV
vector 480 GossipSubNetwork.nodes[4972].connectionManager passiveListUpdate:vector ETV
vector 481 GossipSubNetwork.nodes[4235].connectionManager passiveListUpdate:vector ETV
vector 482 GossipSubNetwork.nodes[2539].connectionManager passiveListUpdate:vector ETV
vector 483 GossipSubNetwork.nodes[4351].connectionManager passiveListUpdate:vector ETV
vector 484 GossipSubNetwork.nodes[1484].connectionManager passiveListUpdate:vector ETV
vector 485 GossipSubNetwork.nodes[902].connectionManager passiveListUpdate:vector ETV
vector 486 GossipSubNetwork.nodes[1525].connectionManager passiveListUpdate:vector ETV
vector 487 GossipSubNetwork.nodes[4633].connectionManager passiveListUpdate:vector ETV
vector 488 GossipSubNetwork.nodes[997].connectionManager passiveListUpdate:vector ETV
vector 489 GossipSubNetwork.nodes[3972].connectionManager passiveListUpdate:vector ETV
vector 490 GossipSubNetwork.nodes[2936].connectionManager passiveListUpdate:vector ETV
vector 491 GossipSubNetwork.nodes[2845].connectionManager passiveListUpdate:vector ETV
vector 492 GossipSubNetwork.nodes[1558].connectionManager passiveListUpdate:vector ETV
vector 493 GossipSubNetwork.nodes[4403].connectionManager passiveListUpdate:vector ETV
vector 494 GossipSubNetwork.nodes[429].connectionManager passiveListUpdate:vector ETV
vector 495 GossipSubNetwork.nodes[4667].connectionManager passiveListUpdate:vector ETV
vector 496 GossipSubNetwork.nodes[3158].connectionManager passiveListUpdate:vector ETV
vector 497 GossipSubNetwork.nodes[2141].connectionManager passiveListUpdate:vector ETV
vector 498 GossipSubNetwork.nodes[351].connectionManager passiveListUpdate:vector ETV
vector 499 GossipSubNetwork.nodes[3511].connectionManager passiveListUpdate:vector ETV
vector 500 GossipSubNetwork.nodes[2877].connectionManager passiveListUpdate:vector ETV
vector 501 GossipSubNetwork.nodes[1463].connectionManager passiveListUpdate:vector ETV
vector 502 GossipSubNetwork.nodes[3875].connectionManager passiveListUpdate:vector ETV
vector 503 GossipSubNetwork.nodes[2645].connectionManager passiveListUpdate:vector ETV
vector 504 GossipSubNetwork.nodes[879].connectionManager passiveListUpdate:vector ETV
vector 505 GossipSubNetwork.nodes[4734].connectionManager passiveListUpdate:vector ETV
vector 506 GossipSubNetwork.nodes[4350].connectionManager passiveListUpdate:vector ETV
vector 507 GossipSubNetwork.nodes[1434].connectionManager passiveListUpdate:vector ETV
vector 508 GossipSubNetwork.nodes[4325].connectionManager passiveListUpdate:vector ETV
vector 509 GossipSubNetwork.nodes[4672].connectionManager passiveListUpdate:vector ETV
vector 510 GossipSubNetwork.nodes[1036].connectionManager passiveListUpdate:vector ETV
vector 511 GossipSubNetwork.nodes[746].connectionManager passiveListUpdate:vector ETV
vector 512 GossipSubNetwork.nodes[1843].connectionManager passiveListUpdate:vector ETV
vector 513 GossipSubNetwork.nodes[3711].connectionManager passiveListUpdate:vector ETV
vector 514 GossipSubNetwork.nodes[3286].connectionManager passiveListUpdate:vector ETV
vector 515 GossipSubNetwork.nodes[4647].connectionManager passiveListUpdate:vector ETV
vector 516 GossipSubNetwork.nodes[2582].connectionManager passiveListUpdate:vector ETV
vector 517 GossipSubNetwork.nodes[4726].connectionManager passiveListUpdate:vector ETV
vector 518 GossipSubNetwork.nodes[147].connectionManager passiveListUpdate:vector ETV
vector 519 GossipSubNetwork.nodes[3034].connectionManager passiveListUpdate:vector ETV
vector 520 GossipSubNetwork.nodes[346].connectionManager passiveListUpdate:vector ETV
vector 521 GossipSubNetwork.nodes[7].connectionManager passiveListUpdate:vector ETV
vector 522 GossipSubNetwork.nodes[2545].connectionManager passiveListUpdate:vector ETV
vector 523 GossipSubNetwork.nodes[4941].connectionManager passiveListUpdate:vector ETV
vector 524 GossipSubNetwork.nodes[4849].connectionManager passiveListUpdate:vector ETV
vector 525 GossipSubNetwork.nodes[1714].connectionManager passiveListUpdate:vector ETV
vector 526 GossipSubNetwork.nodes[389].connectionManager passiveListUpdate:vector ETV
vector 527 GossipSubNetwork.nodes[3042].connectionManager passiveListUpdate:vector ETV
vector 528 GossipSubNetwork.nodes[978].connectionManager passiveListUpdate:vector ETV
vector 529 GossipSubNetwork.nodes[2565].connectionManager passiveListUpdate:vector ETV
vector 530 GossipSubNetwork.nodes[1384].connectionManager passiveListUpdate:vector ETV
vector 531 GossipSubNetwork.nodes[1938].connectionManager passiveListUpdate:vector ETV
vector 532 GossipSubNetwork.nodes[4370].connectionManager passiveListUpdate:vector ETV
vector 533 GossipSubNetwork.nodes[4334].connectionManager passiveListUpdate:vector ETV
vector 534 GossipSubNetwork.nodes[3123].connectionManager passiveListUpdate:vector ETV
vector 535 GossipSubNetwork.nodes[2500].connectionManager passiveListUpdate:vector ETV
vector 536 GossipSubNetwork.nodes[393].connectionManager passiveListUpdate:vector ETV
vector 537 GossipSubNetwork.nodes[4880].connectionManager passiveListUpdate:vector ETV
vector 538 GossipSubNetwork.nodes[1989].connectionManager passiveListUpdate:vector ETV
vector 539 GossipSubNetwork.nodes[2826].connectionManager passiveListUpdate:vector ETV
vector 540 GossipSubNetwork.nodes[4582].connectionManager passiveListUpdate:vector ETV
vector 541 GossipSubNetwork.nodes[344].connectionManager passiveListUpdate:vector ETV
vector 542 GossipSubNetwork.nodes[1753].connectionManager passiveListUpdate:vector ETV
vector 543 GossipSubNetwork.nodes[3606].connectionManager passiveListUpdate:vector ETV
vector 544 GossipSubNetwork.nodes[1775].connectionManager passiveListUpdate:vector ETV
vector 545 GossipSubNetwork.nodes[1065].connectionManager passiveListUpdate:vector ETV
vector 546 GossipSubNetwork.nodes[641].connectionManager passiveListUpdate:vector ETV
vector 547 GossipSubNetwork.nodes[1724].connectionManager passiveListUpdate:vector ETV
vector 548 GossipSubNetwork.nodes[2182].connectionManager passiveListUpdate:vector ETV
vector 549 GossipSubNetwork.nodes[1520].connectionManager passiveListUpdate:vector ETV
vector 550 GossipSubNetwork.nodes[1263].connectionManager passiveListUpdate:vector ETV
vector 551 GossipSubNetwork.nodes[4029].connectionManager passiveListUpdate:vector ETV
vector 552 GossipSubNetwork.nodes[3359].connectionManager passiveListUpdate:vector ETV
vector 553 GossipSubNetwork.nodes[2658].connectionManager passiveListUpdate:vector ETV
vector 554 GossipSubNetwork.nodes[3047].connectionManager passiveListUpdate:vector ETV
vector 555 GossipSubNetwork.nodes[3041].connectionManager passiveListUpdate:vector ETV
vector 556 GossipSubNetwork.nodes[1290].connectionManager passiveListUpdate:vector ETV
vector 557 GossipSubNetwork.nodes[4211].connectionManager passiveListUpdate:vector ETV
vector 558 GossipSubNetwork.nodes[3942].connectionManager passiveListUpdate:vector ETV
vector 559 GossipSubNetwork.nodes[622].connectionManager passiveListUpdate:vector ETV
vector 560 GossipSubNetwork.nodes[3788].connectionManager passiveListUpdate:vector ETV
vector 561 GossipSubNetwork.nodes[803].connectionManager passiveListUpdate:vector ETV
vector 562 GossipSubNetwork.nodes[1236].connectionManager passiveListUpdate:vector ETV
vector 563 GossipSubNetwork.nodes[3999].connectionManager passiveListUpdate:vector ETV
vector 564 GossipSubNetwork.nodes[789].connectionManager passiveListUpdate:vector ETV
vector 565 GossipSubNetwork.nodes[2398].connectionManager passiveListUpdate:vector ETV
vector 566 GossipSubNetwork.nodes[1789].connectionManager passiveListUpdate:vector ETV
vector 567 GossipSubNetwork.nodes[666].connectionManager passiveListUpdate:vector ETV
vector 568 GossipSubNetwork.nodes[3063].connectionManager passiveListUpdate:vector ETV
vector 569 GossipSubNetwork.nodes[4367].connectionManager passiveListUpdate:vector ETV
vector 570 GossipSubNetwork.nodes[216].connectionManager passiveListUpdate:vector ETV
vector 571 GossipSubNetwork.nodes[1544].connectionManager passiveListUpdate:vector ETV
vector 572 GossipSubNetwork.nodes[4152].connectionManager passiveListUpdate:vector ETV
vector 573 GossipSubNetwork.nodes[2711].connectionManager passiveListUpdate:vector ETV
vector 574 GossipSubNetwork.nodes[2147].connectionManager passiveListUpdate:vector ETV
vector 575 GossipSubNetwork.nodes[4245].connectionManager passiveListUpdate:vector ETV
vector 576 GossipSubNetwork.nodes[1485].connectionManager passiveListUpdate:vector ETV
vector 577 GossipSubNetwork.nodes[3627].connectionManager passiveListUpdate:vector ETV
vector 578 GossipSubNetwork.nodes[1333].connectionManager passiveListUpdate:vector ETV
vector 579 GossipSubNetwork.nodes[3153].connectionManager passiveListUpdate:vector ETV
vector 580 GossipSubNetwork.nodes[3276].connectionManager passiveListUpdate:vector ETV
vector 581 GossipSubNetwork.nodes[4047].connectionManager passiveListUpdate:vector ETV
vector 582 GossipSubNetwork.nodes[4286].connectionManager passiveListUpdate:vector ETV
vector 583 GossipSubNetwork.nodes[2287].connectionManager passiveListUpdate:vector ETV
vector 584 GossipSubNetwork.nodes[1063].connectionManager passiveListUpdate:vector ETV
vector 585 GossipSubNetwork.nodes[1642].connectionManager passiveListUpdate:vector ETV
vector 586 GossipSubNetwork.nodes[4722].connectionManager passiveListUpdate:vector ETV
vector 587 GossipSubNetwork.nodes[1807].connectionManager passiveListUpdate:vector ETV
vector 588 GossipSubNetwork.nodes[3060].connectionManager passiveListUpdate:vector ETV
vector 589 GossipSubNetwork.nodes[569].connectionManager passiveListUpdate:vector ETV
vector 590 GossipSubNetwork.nodes[4802].connectionManager passiveListUpdate:vector ETV
vector 591 GossipSubNetwork.nodes[892].connectionManager passiveListUpdate:vector ETV
vector 592 GossipSubNetwork.nodes[2839].connectionManager passiveListUpdate:vector ETV
vector 593 GossipSubNetwork.nodes[2376].connectionManager passiveListUpdate:vector ETV
vector 594 GossipSubNetwork.nodes[460].connectionManager passiveListUpdate:vector ETV
vector 595 GossipSubNetwork.nodes[120].connectionManager passiveListUpdate:vector ETV
vector 596 GossipSubNetwork.nodes[1184].connectionManager passiveListUpdate:vector ETV
vector 597 GossipSubNetwork.nodes[2073].connectionManager passiveListUpdate:vector ETV
vector 598 GossipSubNetwork.nodes[3130].connectionManager passiveListUpdate:vector ETV
vector 599 GossipSubNetwork.nodes[487].connectionManager passiveListUpdate:vector ETV
vector 600 GossipSubNetwork.nodes[1828].connectionManager passiveListUpdate:vector ETV
vector 601 GossipSubNetwork.nodes[3877].connectionManager passiveListUpdate:vector ETV
vector 602 GossipSubNetwork.nodes[488].connectionManager passiveListUpdate:vector ETV
vector 603 GossipSubNetwork.nodes[2871].connectionManager passiveListUpdate:vector ETV
vector 604 GossipSubNetwork.nodes[1957].connectionManager passiveListUpdate:vector ETV
vector 605 GossipSubNetwork.nodes[3594].connectionManager passiveListUpdate:vector ETV
vector 606 GossipSubNetwork.nodes[3197].connectionManager passiveListUpdate:vector ETV
vector 607 GossipSubNetwork.nodes[4157].connectionManager passiveListUpdate:vector ETV
vector 608 GossipSubNetwork.nodes[4284].connectionManager passiveListUpdate:vector ETV
vector 609 GossipSubNetwork.nodes[3126].connectionManager passiveListUpdate:vector ETV
vector 610 GossipSubNetwork.nodes[1921].connectionManager passiveListUpdate:vector ETV
vector 611 GossipSubNetwork.nodes[4137].connectionManager passiveListUpdate:vector ETV
vector 612 GossipSubNetwork.nodes[3265].connectionManager passiveListUpdate:vector ETV
vector 613 GossipSubNetwork.nodes[1797].connectionManager passiveListUpdate:vector ETV
vector 614 GossipSubNetwork.nodes[217].connectionManager passiveListUpdate:vector ETV
vector 615 GossipSubNetwork.nodes[1860].connectionManager passiveListUpdate:vector ETV
vector 616 GossipSubNetwork.nodes[1049].connectionManager passiveListUpdate:vector ETV
vector 617 GossipSubNetwork.nodes[4216].connectionManager passiveListUpdate:vector ETV
vector 618 GossipSubNetwork.nodes[1467].connectionManager passiveListUpdate:vector ETV
vector 619 GossipSubNetwork.nodes[3005].connectionManager passiveListUpdate:vector ETV
vector 620 GossipSubNetwork.nodes[43].connectionManager passiveListUpdate:vector ETV
vector 621 GossipSubNetwork.nodes[4676].connectionManager passiveListUpdate:vector ETV
vector 622 GossipSubNetwork.nodes[1487].connectionManager passiveListUpdate:vector ETV
vector 623 GossipSubNetwork.nodes[2506].connectionManager passiveListUpdate:vector ETV
vector 624 GossipSubNetwork.nodes[3163].connectionManager passiveListUpdate:vector ETV
vector 625 GossipSubNetwork.nodes[4386].connectionManager passiveListUpdate:vector ETV
vector 626 GossipSubNetwork.nodes[1349].connectionManager passiveListUpdate:vector ETV
vector 627 GossipSubNetwork.nodes[3607].connectionManager passiveListUpdate:vector ETV
vector 628 GossipSubNetwork.nodes[3550].connectionManager passiveListUpdate:vector ETV
vector 629 GossipSubNetwork.nodes[2257].connectionManager passiveListUpdate:vector ETV
vector 630 GossipSubNetwork.nodes[1699].connectionManager passiveListUpdate:vector ETV
vector 631 GossipSubNetwork.nodes[1978].connectionManager passiveListUpdate:vector ETV
vector 632 GossipSubNetwork.nodes[4691].connectionManager passiveListUpdate:vector ETV
vector 633 GossipSubNetwork.nodes[311].connectionManager passiveListUpdate:vector ETV
vector 634 GossipSubNetwork.nodes[862].connectionManager passiveListUpdate:vector ETV
vector 635 GossipSubNetwork.nodes[4892].connectionManager passiveListUpdate:vector ETV
vector 636 GossipSubNetwork.nodes[2999].connectionManager passiveListUpdate:vector ETV
vector 637 GossipSubNetwork.nodes[945].connectionManager passiveListUpdate:vector ETV
vector 638 GossipSubNetwork.nodes[611].connectionManager passiveListUpdate:vector ETV
vector 639 GossipSubNetwork.nodes[1172].connectionManager passiveListUpdate:vector ETV
vector 640 GossipSubNetwork.nodes[3904].connectionManager passiveListUpdate:vector ETV
vector 641 GossipSubNetwork.nodes[4933].connectionManager passiveListUpdate:vector ETV
vector 642 GossipSubNetwork.nodes[2245].connectionManager passiveListUpdate:vector ETV
vector 643 GossipSubNetwork.nodes[2937].connectionManager passiveListUpdate:vector ETV
vector 644 GossipSubNetwork.nodes[1518].connectionManager passiveListUpdate:vector ETV
vector 645 GossipSubNetwork.nodes[4589].connectionManager passiveListUpdate:vector ETV
vector 646 GossipSubNetwork.nodes[2451].connectionManager passiveListUpdate:vector ETV
vector 647 GossipSubNetwork.nodes[4462].connectionManager passiveListUpdate:vector ETV
vector 648 GossipSubNetwork.nodes[3368].connectionManager passiveListUpdate:vector ETV
vector 649 GossipSubNetwork.nodes[35].connectionManager passiveListUpdate:vector ETV
vector 650 GossipSubNetwork.nodes[2483].connectionManager passiveListUpdate:vector ETV
vector 651 GossipSubNetwork.nodes[3054].connectionManager passiveListUpdate:vector ETV
vector 652 GossipSubNetwork.nodes[4118].connectionManager passiveListUpdate:vector ETV
vector 653 GossipSubNetwork.nodes[3515].connectionManager passiveListUpdate:vector ETV
vector 654 GossipSubNetwork.nodes[560].connectionManager passiveListUpdate:vector ETV
vector 655 GossipSubNetwork.nodes[2570].connectionManager passiveListUpdate:vector ETV
vector 656 GossipSubNetwork.nodes[3495].connectionManager passiveListUpdate:vector ETV
vector 657 GossipSubNetwork.nodes[627].connectionManager passiveListUpdate:vector ETV
vector 658 GossipSubNetwork.nodes[3649].connectionManager passiveListUpdate:vector ETV
vector 659 GossipSubNetwork.nodes[426].connectionManager passiveListUpdate:vector ETV
vector 660 GossipSubNetwork.nodes[4493].connectionManager passiveListUpdate:vector ETV
vector 661 GossipSubNetwork.nodes[1607].connectionManager passiveListUpdate:vector ETV
vector 662 GossipSubNetwork.nodes[4305].connectionManager passiveListUpdate:vector ETV
vector 663 GossipSubNetwork.nodes[981].connectionManager passiveListUpdate:vector ETV
vector 664 GossipSubNetwork.nodes[172].connectionManager passiveListUpdate:vector ETV
vector 665 GossipSubNetwork.nodes[2384].connectionManager passiveListUpdate:vector ETV
vector 666 GossipSubNetwork.nodes[3457].connectionManager passiveListUpdate:vector ETV
vector 667 GossipSubNetwork.nodes[3555].connectionManager passiveListUpdate:vector ETV
vector 668 GossipSubNetwork.nodes[743].connectionManager passiveListUpdate:vector ETV
vector 669 GossipSubNetwork.nodes[3485].connectionManager passiveListUpdate:vector ETV
vector 670 GossipSubNetwork.nodes[2917].connectionManager passiveListUpdate:vector ETV
vector 671 GossipSubNetwork.nodes[4110].connectionManager passiveListUpdate:vector ETV
vector 672 GossipSubNetwork.nodes[2614].connectionManager passiveListUpdate:vector ETV
vector 673 GossipSubNetwork.nodes[3452].connectionManager passiveListUpdate:vector ETV
vector 674 GossipSubNetwork.nodes[870].connectionManager passiveListUpdate:vector ETV
vector 675 GossipSubNetwork.nodes[3260].connectionManager passiveListUpdate:vector ETV
vector 676 GossipSubNetwork.nodes[534].connectionManager passiveListUpdate:vector ETV
vector 677 GossipSubNetwork.nodes[3460].connectionManager passiveListUpdate:vector ETV
vector 678 GossipSubNetwork.nodes[741].connectionManager passiveListUpdate:vector ETV
vector 679 GossipSubNetwork.nodes[4182].connectionManager passiveListUpdate:vector ETV
vector 680 GossipSubNetwork.nodes[533].connectionManager passiveListUpdate:vector ETV
vector 681 GossipSubNetwork.nodes[2630].connectionManager passiveListUpdate:vector ETV
vector 682 GossipSubNetwork.nodes[3214].connectionManager passiveListUpdate:vector ETV
vector 683 GossipSubNetwork.nodes[2327].connectionManager passiveListUpdate:vector ETV
vector 684 GossipSubNetwork.nodes[808].connectionManager passiveListUpdate:vector ETV
vector 685 GossipSubNetwork.nodes[113].connectionManager passiveListUpdate:vector ETV
vector 686 GossipSubNetwork.nodes[3305].connectionManager passiveListUpdate:vector ETV
vector 687 GossipSubNetwork.nodes[1478].connectionManager passiveListUpdate:vector ETV
vector 688 GossipSubNetwork.nodes[4006].connectionManager passiveListUpdate:vector ETV
vector 689 GossipSubNetwork.nodes[1657].connectionManager passiveListUpdate:vector ETV
vector 690 GossipSubNetwork.nodes[2242].connectionManager passiveListUpdate:vector ETV
vector 691 GossipSubNetwork.nodes[3929].connectionManager passiveListUpdate:vector ETV
vector 692 GossipSubNetwork.nodes[3628].connectionManager passiveListUpdate:vector ETV
vector 693 GossipSubNetwork.nodes[4313].connectionManager passiveListUpdate:vector ETV
vector 694 GossipSubNetwork.nodes[660].connectionManager passiveListUpdate:vector ETV
vector 695 GossipSubNetwork.nodes[2944].connectionManager passiveListUpdate:vector ETV
vector 696 GossipSubNetwork.nodes[3784].connectionManager passiveListUpdate:vector ETV
vector 697 GossipSubNetwork.nodes[4915].connectionManager passiveListUpdate:vector ETV
vector 698 GossipSubNetwork.nodes[4957].connectionManager passiveListUpdate:vector ETV
vector 699 GossipSubNetwork.nodes[4176].connectionManager passiveListUpdate:vector ETV
vector 700 GossipSubNetwork.nodes[2289].connectionManager passiveListUpdate:vector ETV
vector 701 GossipSubNetwork.nodes[3271].connectionManager passiveListUpdate:vector ETV
vector 702 GossipSubNetwork.nodes[4089].connectionManager passiveListUpdate:vector ETV
vector 703 GossipSubNetwork.nodes[2733].connectionManager passiveListUpdate:vector ETV
vector 704 GossipSubNetwork.nodes[164].connectionManager passiveListUpdate:vector ETV
vector 705 GossipSubNetwork.nodes[2206].connectionManager passiveListUpdate:vector ETV
vector 706 GossipSubNetwork.nodes[2415].connectionManager passiveListUpdate:vector ETV
vector 707 GossipSubNetwork.nodes[3632].connectionManager passiveListUpdate:vector ETV
vector 708 GossipSubNetwork.nodes[2197].connectionManager passiveListUpdate:vector ETV
vector 709 GossipSubNetwork.nodes[3437].connectionManager passiveListUpdate:vector ETV
vector 710 GossipSubNetwork.nodes[49].connectionManager passiveListUpdate:vector ETV
vector 711 GossipSubNetwork.nodes[1794].connectionManager passiveListUpdate:vector ETV
vector 712 GossipSubNetwork.nodes[1678].connectionManager passiveListUpdate:vector ETV
vector 713 GossipSubNetwork.nodes[3718].connectionManager passiveListUpdate:vector ETV
vector 714 GossipSubNetwork.nodes[4310].connectionManager passiveListUpdate:vector ETV
vector 715 GossipSubNetwork.nodes[1918].connectionManager passiveListUpdate:vector ETV
vector 716 GossipSubNetwork.nodes[272].connectionManager passiveListUpdate:vector ETV
vector 717 GossipSubNetwork.nodes[4750].connectionManager passiveListUpdate:vector ETV
vector 718 GossipSubNetwork.nodes[2127].connectionManager passiveListUpdate:vector ETV
vector 719 GossipSubNetwork.nodes[1709].connectionManager passiveListUpdate:vector ETV
vector 720 GossipSubNetwork.nodes[4001].connectionManager passiveListUpdate:vector ETV
vector 721 GossipSubNetwork.nodes[2437].connectionManager passiveListUpdate:vector ETV
vector 722 GossipSubNetwork.nodes[297].connectionManager passiveListUpdate:vector ETV
vector 723 GossipSubNetwork.nodes[4803].connectionManager passiveListUpdate:vector ETV
vector 724 GossipSubNetwork.nodes[3890].connectionManager passiveListUpdate:vector ETV
vector 725 GossipSubNetwork.nodes[3857].connectionManager passiveListUpdate:vector ETV
vector 726 GossipSubNetwork.nodes[3993].connectionManager passiveListUpdate:vector ETV
vector 727 GossipSubNetwork.nodes[1266].connectionManager passiveListUpdate:vector ETV
vector 728 GossipSubNetwork.nodes[3257].connectionManager passiveListUpdate:vector ETV
vector 729 GossipSubNetwork.nodes[2295].connectionManager passiveListUpdate:vector ETV
vector 730 GossipSubNetwork.nodes[1703].connectionManager passiveListUpdate:vector ETV
vector 731 GossipSubNetwork.nodes[1452].connectionManager passiveListUpdate:vector ETV
vector 732 GossipSubNetwork.nodes[3697].connectionManager passiveListUpdate:vector ETV
vector 733 GossipSubNetwork.nodes[3765].connectionManager passiveListUpdate:vector ETV
vector 734 GossipSubNetwork.nodes[3007].connectionManager passiveListUpdate:vector ETV
vector 735 GossipSubNetwork.nodes[4454].connectionManager passiveListUpdate:vector ETV
vector 736 GossipSubNetwork.nodes[39].connectionManager passiveListUpdate:vector ETV
vector 737 GossipSubNetwork.nodes[2131].connectionManager passiveListUpdate:vector ETV
vector 738 GossipSubNetwork.nodes[3458].connectionManager passiveListUpdate:vector ETV
vector 739 GossipSubNetwork.nodes[2894].connectionManager passiveListUpdate:vector ETV
vector 740 GossipSubNetwork.nodes[3948].connectionManager passiveListUpdate:vector ETV
vector 741 GossipSubNetwork.nodes[3752].connectionManager passiveListUpdate:vector ETV
vector 742 GossipSubNetwork.nodes[333].connectionManager passiveListUpdate:vector ETV
vector 743 GossipSubNetwork.nodes[4587].connectionManager passiveListUpdate:vector ETV
vector 744 GossipSubNetwork.nodes[1419].connectionManager passiveListUpdate:vector ETV
vector 745 GossipSubNetwork.nodes[3178].connectionManager passiveListUpdate:vector ETV
vector 746 GossipSubNetwork.nodes[857].connectionManager passiveListUpdate:vector ETV
vector 747 GossipSubNetwork.nodes[3135].connectionManager passiveListUpdate:vector ETV
vector 748 GossipSubNetwork.nodes[582].connectionManager passiveListUpdate:vector ETV
vector 749 GossipSubNetwork.nodes[4774].connectionManager passiveListUpdate:vector ETV
vector 750 GossipSubNetwork.nodes[4025].connectionManager passiveListUpdate:vector ETV
vector 751 GossipSubNetwork.nodes[468].connectionManager passiveListUpdate:vector ETV
vector 752 GossipSubNetwork.nodes[1549].connectionManager passiveListUpdate:vector ETV
vector 753 GossipSubNetwork.nodes[825].connectionManager passiveListUpdate:vector ETV
vector 754 GossipSubNetwork.nodes[3328].connectionManager passiveListUpdate:vector ETV
vector 755 GossipSubNetwork.nodes[3938].connectionManager passiveListUpdate:vector ETV
vector 756 GossipSubNetwork.nodes[624].connectionManager passiveListUpdate:vector ETV
vector 757 GossipSubNetwork.nodes[2250].connectionManager passiveListUpdate:vector ETV
vector 758 GossipSubNetwork.nodes[4525].connectionManager passiveListUpdate:vector ETV
vector 759 GossipSubNetwork.nodes[354].connectionManager passiveListUpdate:vector ETV
vector 760 GossipSubNetwork.nodes[4773].connectionManager passiveListUpdate:vector ETV
vector 761 GossipSubNetwork.nodes[4999].connectionManager passiveListUpdate:vector ETV
vector 762 GossipSubNetwork.nodes[2558].connectionManager passiveListUpdate:vector ETV
vector 763 GossipSubNetwork.nodes[2540].connectionManager passiveListUpdate:vector ETV
vector 764 GossipSubNetwork.nodes[2035].connectionManager passiveListUpdate:vector ETV
vector 765 GossipSubNetwork.nodes[2515].connectionManager passiveListUpdate:vector ETV
vector 766 GossipSubNetwork.nodes[2215].connectionManager passiveListUpdate:vector ETV
vector 767 GossipSubNetwork.nodes[4992].connectionManager passiveListUpdate:vector ETV
vector 768 GossipSubNetwork.nodes[3274].connectionManager passiveListUpdate:vector ETV
vector 769 GossipSubNetwork.nodes[2056].connectionManager passiveListUpdate:vector ETV
vector 770 GossipSubNetwork.nodes[2588].connectionManager passiveListUpdate:vector ETV
vector 771 GossipSubNetwork.nodes[4780].connectionManager passiveListUpdate:vector ETV
vector 772 GossipSubNetwork.nodes[709].connectionManager passiveListUpdate:vector ETV
vector 773 GossipSubNetwork.nodes[4896].connectionManager passiveListUpdate:vector ETV
vector 774 GossipSubNetwork.nodes[1344].connectionManager passiveListUpdate:vector ETV
vector 775 GossipSubNetwork.nodes[636].connectionManager passiveListUpdate:vector ETV
vector 776 GossipSubNetwork.nodes[1335].connectionManager passiveListUpdate:vector ETV
vector 777 GossipSubNetwork.nodes[793].connectionManager passiveListUpdate:vector ETV
vector 778 GossipSubNetwork.nodes[3888].connectionManager passiveListUpdate:vector ETV
vector 779 GossipSubNetwork.nodes[3199].connectionManager passiveListUpdate:vector ETV
vector 780 GossipSubNetwork.nodes[4904].connectionManager passiveListUpdate:vector ETV
vector 781 GossipSubNetwork.nodes[3636].connectionManager passiveListUpdate:vector ETV
vector 782 GossipSubNetwork.nodes[542].connectionManager passiveListUpdate:vector ETV
vector 783 GossipSubNetwork.nodes[4276].connectionManager passiveListUpdate:vector ETV
vector 784 GossipSubNetwork.nodes[3974].connectionManager passiveListUpdate:vector ETV
vector 785 GossipSubNetwork.nodes[3868].connectionManager passiveListUpdate:vector ETV
vector 786 GossipSubNetwork.nodes[4491].connectionManager passiveListUpdate:vector ETV
vector 787 GossipSubNetwork.nodes[931].connectionManager passiveListUpdate:vector ETV
vector 788 GossipSubNetwork.nodes[2321].connectionManager passiveListUpdate:vector ETV
vector 789 GossipSubNetwork.nodes[3112].connectionManager passiveListUpdate:vector ETV
vector 790 GossipSubNetwork.nodes[4124].connectionManager passiveListUpdate:vector ETV
vector 791 GossipSubNetwork.nodes[1248].connectionManager passiveListUpdate:vector ETV
vector 792 GossipSubNetwork.nodes[4834].connectionManager passiveListUpdate:vector ETV
vector 793 GossipSubNetwork.nodes[3242].connectionManager passiveListUpdate:vector ETV
vector 794 GossipSubNetwork.nodes[128].connectionManager passiveListUpdate:vector ETV
vector 795 GossipSubNetwork.nodes[3309].connectionManager passiveListUpdate:vector ETV
vector 796 GossipSubNetwork.nodes[1630].connectionManager passiveListUpdate:vector ETV
vector 797 GossipSubNetwork.nodes[2928].connectionManager passiveListUpdate:vector ETV
vector 798 GossipSubNetwork.nodes[3767].connectionManager passiveListUpdate:vector ETV
vector 799 GossipSubNetwork.nodes[288].connectionManager passiveListUpdate:vector ETV
vector 800 GossipSubNetwork.nodes[369].connectionManager passiveListUpdate:vector ETV
vector 801 GossipSubNetwork.nodes[26].connectionManager passiveListUpdate:vector ETV
vector 802 GossipSubNetwork.nodes[1971].connectionManager passiveListUpdate:vector ETV
vector 803 GossipSubNetwork.nodes[914].connectionManager passiveListUpdate:vector ETV
vector 804 GossipSubNetwork.nodes[277].connectionManager passiveListUpdate:vector ETV
vector 805 GossipSubNetwork.nodes[4393].connectionManager passiveListUpdate:vector ETV
vector 806 GossipSubNetwork.nodes[3465].connectionManager passiveListUpdate:vector ETV
vector 807 GossipSubNetwork.nodes[1579].connectionManager passiveListUpdate:vector ETV
vector 808 GossipSubNetwork.nodes[1907].connectionManager passiveListUpdate:vector ETV
vector 809 GossipSubNetwork.nodes[564].connectionManager passiveListUpdate:vector ETV
vector 810 GossipSubNetwork.nodes[694].connectionManager passiveListUpdate:vector ETV
vector 811 GossipSubNetwork.nodes[4372].connectionManager passiveListUpdate:vector ETV
vector 812 GossipSubNetwork.nodes[3466].connectionManager passiveListUpdate:vector ETV
vector 813 GossipSubNetwork.nodes[2793].connectionManager passiveListUpdate:vector ETV
vector 814 GossipSubNetwork.nodes[3757].connectionManager passiveListUpdate:vector ETV
vector 815 GossipSubNetwork.nodes[1545].connectionManager passiveListUpdate:vector ETV
vector 816 GossipSubNetwork.nodes[3906].connectionManager passiveListUpdate:vector ETV
vector 817 GossipSubNetwork.nodes[4237].connectionManager passiveListUpdate:vector ETV
vector 818 GossipSubNetwork.nodes[1377].connectionManager passiveListUpdate:vector ETV
vector 819 GossipSubNetwork.nodes[1493].connectionManager passiveListUpdate:vector ETV
vector 820 GossipSubNetwork.nodes[3308].connectionManager passiveListUpdate:vector ETV
vector 821 GossipSubNetwork.nodes[476].connectionManager passiveListUpdate:vector ETV
vector 822 GossipSubNetwork.nodes[1928].connectionManager passiveListUpdate:vector ETV
vector 823 GossipSubNetwork.nodes[4224].connectionManager passiveListUpdate:vector ETV
vector 824 GossipSubNetwork.nodes[4610].connectionManager passiveListUpdate:vector ETV
vector 825 GossipSubNetwork.nodes[3395].connectionManager passiveListUpdate:vector ETV
vector 826 GossipSubNetwork.nodes[2033].connectionManager passiveListUpdate:vector ETV
vector 827 GossipSubNetwork.nodes[2884].connectionManager passiveListUpdate:vector ETV
vector 828 GossipSubNetwork.nodes[3390].connectionManager passiveListUpdate:vector ETV
vector 829 GossipSubNetwork.nodes[2864].connectionManager passiveListUpdate:vector ETV
vector 830 GossipSubNetwork.nodes[3928].connectionManager passiveListUpdate:vector ETV
vector 831 GossipSubNetwork.nodes[1079].connectionManager passiveListUpdate:vector ETV
vector 832 GossipSubNetwork.nodes[2969].connectionManager passiveListUpdate:vector ETV
vector 833 GossipSubNetwork.nodes[2639].connectionManager passiveListUpdate:vector ETV
vector 834 GossipSubNetwork.nodes[2476].connectionManager passiveListUpdate:vector ETV
vector 835 GossipSubNetwork.nodes[1792].connectionManager passiveListUpdate:vector ETV
vector 836 GossipSubNetwork.nodes[1827].connectionManager passiveListUpdate:vector ETV
vector 837 GossipSubNetwork.nodes[4460].connectionManager passiveListUpdate:vector ETV
vector 838 GossipSubNetwork.nodes[4871].connectionManager passiveListUpdate:vector ETV
vector 839 GossipSubNetwork.nodes[4795].connectionManager passiveListUpdate:vector ETV
vector 840 GossipSubNetwork.nodes[1456].connectionManager passiveListUpdate:vector ETV
vector 841 GossipSubNetwork.nodes[2887].connectionManager passiveListUpdate:vector ETV
vector 842 GossipSubNetwork.nodes[168].connectionManager passiveListUpdate:vector ETV
vector 843 GossipSubNetwork.nodes[4477].connectionManager passiveListUpdate:vector ETV
vector 844 GossipSubNetwork.nodes[3647].connectionManager passiveListUpdate:vector ETV
vector 845 GossipSubNetwork.nodes[4155].connectionManager passiveListUpdate:vector ETV
vector 846 GossipSubNetwork.nodes[3296].connectionManager passiveListUpdate:vector ETV
vector 847 GossipSubNetwork.nodes[3094].connectionManager passiveListUpdate:vector ETV
vector 848 GossipSubNetwork.nodes[4061].connectionManager passiveListUpdate:vector ETV
vector 849 GossipSubNetwork.nodes[4416].connectionManager passiveListUpdate:vector ETV
vector 850 GossipSubNetwork.nodes[2753].connectionManager passiveListUpdate:vector ETV
vector 851 GossipSubNetwork.nodes[2553].connectionManager passiveListUpdate:vector ETV
vector 852 GossipSubNetwork.nodes[2432].connectionManager passiveListUpdate:vector ETV
vector 853 GossipSubNetwork.nodes[2640].connectionManager passiveListUpdate:vector ETV
vector 854 GossipSubNetwork.nodes[2446].connectionManager passiveListUpdate:vector ETV
vector 855 GossipSubNetwork.nodes[355].connectionManager passiveListUpdate:vector ETV
vector 856 GossipSubNetwork.nodes[1069].connectionManager passiveListUpdate:vector ETV
vector 857 GossipSubNetwork.nodes[65].connectionManager passiveListUpdate:vector ETV
vector 858 GossipSubNetwork.nodes[4943].connectionManager passiveListUpdate:vector ETV
vector 859 GossipSubNetwork.nodes[2511].connectionManager passiveListUpdate:vector ETV
vector 860 GossipSubNetwork.nodes[1815].connectionManager passiveListUpdate:vector ETV
vector 861 GossipSubNetwork.nodes[20].connectionManager passiveListUpdate:vector ETV
vector 862 GossipSubNetwork.nodes[3108].connectionManager passiveListUpdate:vector ETV
vector 863 GossipSubNetwork.nodes[4331].connectionManager passiveListUpdate:vector ETV
vector 864 GossipSubNetwork.nodes[4404].connectionManager passiveListUpdate:vector ETV
vector 865 GossipSubNetwork.nodes[3887].connectionManager passiveListUpdate:vector ETV
vector 866 GossipSubNetwork.nodes[1109].connectionManager passiveListUpdate:vector ETV
vector 867 GossipSubNetwork.nodes[436].connectionManager passiveListUpdate:vector ETV
vector 868 GossipSubNetwork.nodes[240].connectionManager passiveListUpdate:vector ETV
vector 869 GossipSubNetwork.nodes[106].connectionManager passiveListUpdate:vector ETV
vector 870 GossipSubNetwork.nodes[1924].connectionManager passiveListUpdate:vector ETV
vector 871 GossipSubNetwork.nodes[1360].connectionManager passiveListUpdate:vector ETV
vector 872 GossipSubNetwork.nodes[4087].connectionManager passiveListUpdate:vector ETV
vector 873 GossipSubNetwork.nodes[450].connectionManager passiveListUpdate:vector ETV
vector 874 GossipSubNetwork.nodes[1432].connectionManager passiveListUpdate:vector ETV
vector 875 GossipSubNetwork.nodes[4642].connectionManager passiveListUpdate:vector ETV
vector 876 GossipSubNetwork.nodes[4698].connectionManager passiveListUpdate:vector ETV
vector 877 GossipSubNetwork.nodes[971].connectionManager passiveListUpdate:vector ETV
vector 878 GossipSubNetwork.nodes[1728].connectionManager passiveListUpdate:vector ETV
vector 879 GossipSubNetwork.nodes[2318].connectionManager passiveListUpdate:vector ETV
vector 880 GossipSubNetwork.nodes[4980].connectionManager passiveListUpdate:vector ETV
vector 881 GossipSubNetwork.nodes[2058].connectionManager passiveListUpdate:vector ETV
vector 882 GossipSubNetwork.nodes[2882].connectionManager passiveListUpdate:vector ETV
vector 883 GossipSubNetwork.nodes[2957].connectionManager passiveListUpdate:vector ETV
vector 884 GossipSubNetwork.nodes[4538].connectionManager passiveListUpdate:vector ETV
vector 885 GossipSubNetwork.nodes[4204].connectionManager passiveListUpdate:vector ETV
vector 886 GossipSubNetwork.nodes[3762].connectionManager passiveListUpdate:vector ETV
vector 887 GossipSubNetwork.nodes[1438].connectionManager passiveListUpdate:vector ETV
vector 888 GossipSubNetwork.nodes[3916].connectionManager passiveListUpdate:vector ETV
vector 889 GossipSubNetwork.nodes[519].connectionManager passiveListUpdate:vector ETV
vector 890 GossipSubNetwork.nodes[4193].connectionManager passiveListUpdate:vector ETV
vector 891 GossipSubNetwork.nodes[3621].connectionManager passiveListUpdate:vector ETV
vector 892 GossipSubNetwork.nodes[2998].connectionManager passiveListUpdate:vector ETV
vector 893 GossipSubNetwork.nodes[4278].connectionManager passiveListUpdate:vector ETV
vector 894 GossipSubNetwork.nodes[1427].connectionManager passiveListUpdate:vector ETV
vector 895 GossipSubNetwork.nodes[4791].connectionManager passiveListUpdate:vector ETV
vector 896 GossipSubNetwork.nodes[2954].connectionManager passiveListUpdate:vector ETV
vector 897 GossipSubNetwork.nodes[1265].connectionManager passiveListUpdate:vector ETV
vector 898 GossipSubNetwork.nodes[3536].connectionManager passiveListUpdate:vector ETV
vector 899 GossipSubNetwork.nodes[1417].connectionManager passiveListUpdate:vector ETV
vector 900 GossipSubNetwork.nodes[4611].connectionManager passiveListUpdate:vector ETV
vector 901 GossipSubNetwork.nodes[427].connectionManager passiveListUpdate:vector ETV
vector 902 GossipSubNetwork.nodes[4918].connectionManager passiveListUpdate:vector ETV
vector 903 GossipSubNetwork.nodes[628].connectionManager passiveListUpdate:vector ETV
vector 904 GossipSubNetwork.nodes[4752].connectionManager passiveListUpdate:vector ETV
vector 905 GossipSubNetwork.nodes[4046].connectionManager passiveListUpdate:vector ETV
[...]
4803	103557546 3008 108552642 122937723 509.648776330396 599.918325811823 86 21 21 1806 37926
4804	103560554 3136 108722545 122733386 510.806171686256 598.735179999919 90 22 22 1980 43560
4805	103563690 3170 108791444 122827494 511.213683284291 599.243403863003 91 21 21 1911 40131
4806	103566860 2373 108666526 122788255 510.428797195381 599.039606023854 68 21 21 1428 29988
4807	103569233 2405 108672873 122731706 510.479297404509 598.724043007665 69 21 21 1449 30429
4808	103571638 3109 108723007 122930104 510.810130042867 599.863287895206 89 21 21 1869 39249
4809	103574747 4331 108553448 122698502 509.655032698896 598.533940820631 124 22 22 2728 60016
4810	103579078 2653 108703487 122762440 510.681371997039 598.893367346519 76 21 21 1596 33516
4811	103581731 2588 108558756 122771668 509.691073970162 598.942306953723 74 21 21 1554 32634
4812	103584319 2929 108575294 122912420 509.825975155842 599.742066766056 84 21 21 1764 37044
4813	103587248 2726 108587190 122924471 509.908862537385 599.829092896917 78 21 21 1638 34398
4814	103589974 2435 108655817 122636937 510.357335356333 598.14733117874 70 21 21 1470 30870
4815	103592409 2272 108571011 122935423 509.796704800976 599.900469407699 65 21 21 1365 28665
4816	103594681 2512 108531555 122737042 509.486415927664 598.752996510477 72 21 21 1512 31752
4817	103597193 2795 108604308 122899103 510.019416530048 599.651518361501 80 21 21 1680 35280
4818	103599988 2688 108569426 122729079 509.782110910318 598.708295387973 77 21 21 1617 33957
4819	103602676 2590 108699537 122855200 510.656616001535 599.384090882342 74 21 21 1554 32634
4820	103605266 2823 108583011 122733020 509.884785974864 598.73270580715 81 21 21 1701 35721
4821	103608089 2476 108735630 122786827 510.885344689414 599.029687850273 71 21 21 1491 31311
4822	103610565 2749 108655297 122899953 510.3533353323 599.657004869354 79 21 21 1659 34839
4823	103613314 2585 108666823 122681516 510.431203192762 598.419882423821 74 21 21 1554 32634
4824	103615899 2750 108564818 122869863 509.742740533474 599.464019722994 79 21 21 1659 34839
4825	103618649 2540 108586894 122608703 509.906724408564 597.980390598953 73 21 21 1533 32193
4826	103621189 3350 108566113 122936146 509.753773710876 599.905851182944 96 21 21 2016 42336
4827	103624539 2932 108650143 122714266 510.314665328705 598.624436256539 84 22 22 1848 40656
4828	103627471 2164 108554514 122934099 509.663335143879 599.890520230649 62 21 21 1302 27342
4829	103629635 2479 108614763 122865326 510.092372005795 599.437487007698 71 21 21 1491 31311
4830	103632114 2622 108577123 122945095 509.841033480774 599.966435959245 75 21 21 1575 33075
4831	103634736 2684 108735210 122772984 510.882589761512 598.950427935503 77 21 21 1617 33957
4832	103637420 2579 108645184 122663023 510.279105360303 598.304970925055 74 21 21 1554 32634
4833	103639999 2896 108559267 122890891 509.695529822936 599.595832053952 83 22 22 1826 40172
4834	103642895 2755 108559658 122916714 509.699112487612 599.772631934269 79 22 22 1738 38236
4835	103645650 2300 108783511 122849755 511.16166054091 599.353971808288 66 21 21 1386 29106
4836	103647950 2400 108541844 122840901 509.566069956606 599.310688947528 69 21 21 1449 30429
4837	103650350 2855 108548416 122935539 509.615214874823 599.901324616158 82 21 21 1722 36162
4838	103653205 2405 108627242 122791666 510.163575407712 599.061429931701 69 21 21 1449 30429
4839	103655610 3486 108549734 122913238 509.624975688023 599.747753390881 100 21 21 2100 44100
4840	103659096 2853 108531295 122682990 509.484474799095 598.429777088233 82 22 22 1804 39688
4841	103661949 3668 108711469 122688348 510.728889277208 598.465340095568 105 21 21 2205 46305
4842	103665617 2411 108813750 122849976 511.380075974871 599.355356877318 69 21 21 1449 30429
4843	103668028 2724 108541211 122853414 509.56086062938 599.374791358507 78 21 21 1638 34398
4844	103670752 2579 108627630 122763462 510.165608139069 598.899531419169 74 21 21 1554 32634
4845	103673331 3067 108546577 122897033 509.601197145557 599.636978578223 88 21 21 1848 38808
4846	103676398 2719 108780542 122823797 511.14399772902 599.22509408247 78 21 21 1638 34398
4847	103679117 3139 108612854 122779424 510.078682440924 598.986082565666 90 21 21 1890 39690
4848	103682256 2233 108551387 122757525 509.638368795264 598.864015755944 64 21 21 1344 28224
4849	103684489 2682 108541474 122870601 509.562841145313 599.468641756219 77 21 21 1617 33957
4850	103687171 2688 108548991 122882128 509.619096362334 599.53917569224 77 21 21 1617 33957
4851	103689859 2506 108660177 122712916 510.38960026894 598.621549296527 72 21 21 1512 31752
4852	103692365 3520 108689535 122929466 510.593251871713 599.858305358065 101 22 22 2222 48884
4853	103695885 2721 108716096 122874098 510.762774184493 599.490955138506 78 21 21 1638 34398
4854	103698606 2584 108686816 122896336 510.576035174262 599.632167475749 74 21 21 1554 32634
4855	103701190 2723 108677376 122716388 510.512747697971 598.638010814685 78 22 22 1716 37752
4856	103703913 2724 108789217 122809667 511.198192696654 599.148778646637 78 21 21 1638 34398
4857	103706637 2964 108545986 122880245 509.596853182321 599.527957775187 85 21 21 1785 37485
4858	103709601 2933 108587382 122942996 509.910660200855 599.957361062629 84 21 21 1764 37044
4859	103712534 2795 108664152 122858729 510.418504940012 599.402495009311 80 21 21 1680 35280
4860	103715329 2652 108754600 122775508 510.990741652129 598.966134187756 76 21 21 1596 33516
4861	103717981 2685 108718429 122888086 510.781670323237 599.577995092391 77 21 21 1617 33957
4862	103720666 2895 108719261 122731637 510.788876868926 598.723688302733 83 21 21 1743 36603
4863	103723561 2612 108567693 122928442 509.766530727177 599.851156469816 75 21 21 1575 33075
4864	103726173 2620 108688087 122786705 510.584866088097 599.029060181569 75 21 21 1575 33075
4865	103728793 3212 108678416 122947371 510.521850671957 599.976340063482 92 21 21 1932 40572
4866	103732005 2725 108530339 122947738 509.477600793782 599.979212483167 78 21 21 1638 34398
4867	103734730 3035 108547643 122771580 509.608971547187 598.941746705175 87 22 22 1914 42108
4868	103737765 2061 108567994 122899783 509.769265524551 599.655947528251 59 21 21 1239 26019
4869	103739826 2762 108612493 122806310 510.075482427951 599.13000213497 79 21 21 1659 34839
4870	103742588 2620 108650093 122691765 510.314207632023 598.491100570768 75 21 21 1575 33075
4871	103745208 2693 108619937 122696555 510.117924442766 598.526319177597 77 21 21 1617 33957
4872	103747901 2860 108684956 122717457 510.560800322266 598.645013488472 82 21 21 1722 36162
4873	103750761 2719 108564323 122886401 509.738539388875 599.566615647181 78 21 21 1638 34398
4874	103753480 2830 108639234 122930628 510.238495871233 599.867567554878 81 21 21 1701 35721
4875	103756310 2518 108725807 122845660 510.830624781726 599.336664852872 72 21 21 1512 31752
4876	103758828 3136 108597103 122845951 509.975992448784 599.338185178931 90 21 21 1890 39690
4877	103761964 2339 108555358 122650382 509.670762546745 598.225739631413 67 21 21 1407 29547
4878	103764303 2650 108823499 122908245 511.44854197453 599.713387346693 76 21 21 1596 33516
4879	103766953 2583 108541397 122882948 509.562293376218 599.543922872551 74 21 21 1554 32634
4880	103769536 2861 108699306 122807535 510.655149970442 599.136861773613 82 21 21 1722 36162
4881	103772397 2725 108655543 122668752 510.355357484942 598.340144728484 78 21 21 1638 34398
4882	103775122 2829 108560667 122751545 509.707526952604 598.832308982532 81 21 21 1701 35721
4883	103777951 2653 108685940 122709779 510.568812176676 598.602026956008 76 22 22 1672 36784
4884	103780604 2160 108574068 122817404 509.814759090992 599.192969728243 62 21 21 1302 27342
4885	103782764 2726 108655478 122690950 510.354772446529 598.485038510873 78 21 21 1638 34398
4886	103785490 2337 108702198 122746400 510.672426450958 598.803855229795 67 21 21 1407 29547
4887	103787827 2542 108656712 122875331 510.364870148551 599.498303168249 73 21 21 1533 32193
4888	103790369 2720 108660461 122949378 510.391685984702 599.991834875335 78 21 21 1638 34398
4889	103793089 3275 108573409 122947436 509.808710049004 599.97679928942 94 21 21 1974 41454
4890	103796364 3348 108555394 122918529 509.671107449055 599.785528624254 96 21 21 2016 42336
4891	103799712 2616 108620088 122947828 510.118833364916 599.979827015331 75 21 21 1575 33075
4892	103802328 2302 108809985 122869861 511.350691838857 599.464010244627 66 21 21 1386 29106
4893	103804630 2931 108724438 122767689 510.819618586758 598.91911069455 84 21 21 1764 37044
4894	103807561 2615 108677250 122859874 510.511963721612 599.408336748164 75 21 21 1575 33075
4895	103810176 4077 108625658 122839344 510.153610755918 599.302359535644 117 21 21 2457 51597
4896	103814253 2654 108669168 122677672 510.450314105586 598.399894439849 76 21 21 1596 33516
4897	103816907 2547 108624751 122826606 510.148339713731 599.237990188541 73 21 21 1533 32193
4898	103819454 2864 108804830 122921150 511.311841955366 599.804748002398 82 21 21 1722 36162
4899	103822318 2754 108574574 122935148 509.81964079206 599.898271430862 79 21 21 1659 34839
4900	103825072 2653 108710899 122907028 510.724744059916 599.705158316502 76 21 21 1596 33516
4901	103827725 3983 108590344 122923940 509.932637531403 599.825228946261 114 22 22 2508 55176
4902	103831708 2897 108647328 122705619 510.293506101475 598.574621318618 83 21 21 1743 36603
4903	103834605 2654 108785012 122784516 511.170924895192 599.019969465906 76 21 21 1596 33516
4904	103837259 2199 108565068 122935370 509.744978780319 599.900053540182 63 21 21 1323 27783
4905	103839458 2825 108572361 122717733 509.799337522956 598.646954787665 81 21 21 1701 35721
4906	103842283 2310 108806979 122852628 511.329198864808 599.370355074516 66 21 21 1386 29106
4907	103844593 2305 108783054 122898215 511.158994533857 599.64524961814 66 21 21 1386 29106
4908	103846898 2755 108654383 122792538 510.34813992291 599.066896796125 79 21 21 1659 34839
4909	103849653 2621 108544081 122865359 509.581716202603 599.437612349413 75 21 21 1575 33075
4910	103852274 3249 108583369 122917984 509.887793555582 599.7815444631 93 21 21 1953 41013
4911	103855523 2268 108664715 122888009 510.423123429825 599.577533641074 65 21 21 1365 28665
4912	103857791 2690 108601314 122635561 510.002158197977 598.138140868363 77 22 22 1694 37268
4913	103860481 3000 108565459 122917971 509.748230605628 599.781489069791 86 21 21 1806 37926
4914	103863481 2127 108715378 122769356 510.75932106968 598.928264128291 61 21 21 1281 26901
4915	103865608 2857 108638863 122681935 510.235939527836 598.422399099437 82 22 22 1804 39688
4916	103868465 2475 108718746 122751465 510.784415002801 598.831940551937 71 21 21 1491 31311
4917	103870940 2822 108564238 122940300 509.73793778232 599.937089619984 81 21 21 1701 35721
4918	103873762 2936 108728810 122773234 510.84308308399 598.952061775877 84 21 21 1764 37044
4919	103876698 2656 108702229 122943679 510.672638247684 599.962342019806 76 21 21 1596 33516
4920	103879354 2406 108531327 122869118 509.484754935218 599.45971315795 69 21 21 1449 30429
4921	103881760 2895 108595952 122766214 509.966774438699 598.910100628021 83 21 21 1743 36603
4922	103884655 2792 108601269 122791628 510.001876782006 599.061207290744 80 21 21 1680 35280
4923	103887447 2511 108592004 122938199 509.936882506367 599.921616550428 72 21 21 1512 31752
4924	103889958 2721 108642434 122671375 510.258999140034 598.356506112984 78 22 22 1716 37752
4925	103892679 2612 108656678 122674723 510.364462304704 598.379383340367 75 21 21 1575 33075
4926	103895291 2302 108573041 122889043 509.805306901401 599.5842872232 66 21 21 1386 29106
4927	103897593 2894 108550891 122881526 509.634251751576 599.535579346211 83 22 22 1826 40172
4928	103900487 2614 108597710 122926516 509.980841564375 599.843600855984 75 21 21 1575 33075
4929	103903101 2683 108572354 122881000 509.799301721211 599.532262389137 77 21 21 1617 33957
4930	103905784 2794 108559216 122898573 509.695211216066 599.647971911153 80 21 21 1680 35280
4931	103908578 2616 108567505 122912056 509.765027649477 599.739539395059 75 21 21 1575 33075
4932	103911194 3381 108721736 122847193 510.79949059665 599.345019008331 97 22 22 2134 46948
4933	103914575 2898 108585192 122863223 509.893306741477 599.426135972363 83 21 21 1743 36603
4934	103917473 2780 108538450 122933749 509.540016680132 599.888169875884 80 21 21 1680 35280
4935	103920253 3704 108575510 122908873 509.827987436004 599.718098011799 106 21 21 2226 46746
4936	103923957 3391 108538863 122875961 509.543210403408 599.502158348962 97 21 21 2037 42777
4937	103927348 2339 108581120 122778042 509.869727070353 598.976988464948 67 21 21 1407 29547
4938	103929687 2856 108543702 122760783 509.578926622938 598.883353888737 82 21 21 1722 36162
4939	103932543 2473 108757498 122818357 511.00788501056 599.198770209236 71 21 21 1491 31311
4940	103935016 2442 108664751 122647314 510.423309062467 598.212210419196 70 21 21 1470 30870
4941	103937458 2586 108557160 122862694 509.676872164453 599.42311725983 74 21 21 1554 32634
4942	103940044 2581 108736906 122917220 510.893459692178 599.776240609177 74 21 21 1554 32634
4943	103942625 2684 108738709 122798275 510.905993452149 599.095437555229 77 21 21 1617 33957
4944	103945309 2758 108660373 122834551 510.391127908072 599.278275413909 79 21 21 1659 34839
4945	103948067 2548 108580222 122935753 509.862904336706 599.902992702776 73 21 21 1533 32193
4946	103950615 2514 108637129 122627278 510.224632929536 598.088805073987 72 21 21 1512 31752
4947	103953129 2727 108698054 122866264 510.646329867905 599.442727646624 78 22 22 1716 37752
4948	103955856 2580 108632739 122677740 510.195516138979 598.400377835989 74 21 21 1554 32634
4949	103958436 2510 108807235 122772820 511.331333432094 598.949399759958 72 21 21 1512 31752
4950	103960946 2675 108583443 122712790 509.888342027245 598.620932230006 77 21 21 1617 33957
4951	103963621 2476 108600869 122896065 509.997936225538 599.63054505646 71 21 21 1491 31311
4952	103966097 3005 108650181 122646540 510.31479998621 598.207461359113 86 21 21 1806 37926
4953	103969102 2793 108596708 122849437 509.973018174088 599.352336446605 80 21 21 1680 35280
4954	103971895 2929 108762832 122823731 511.040955673913 599.224588807472 84 21 21 1764 37044
4955	103974824 2969 108620560 122943442 510.121550098554 599.960369936267 85 21 21 1785 37485
4956	103977793 2337 108703141 122715042 510.678818351719 598.62930296692 67 21 21 1407 29547
4957	103980130 2898 108543246 122881957 509.575144852008 599.538296519512 83 22 22 1826 40172
4958	103983028 2791 108569392 122739624 509.781809091888 598.769598098388 80 21 21 1680 35280
4959	103985819 2129 108650288 122794265 510.315890842449 599.077254152135 61 21 21 1281 26901
4960	103987948 2231 108702896 122762235 510.677175279772 598.892135969783 64 21 21 1344 28224
4961	103990179 2685 108605199 122708241 510.027211662801 598.59195339914 77 21 21 1617 33957
4962	103992864 2758 108685129 122853975 510.562069984498 599.37793243266 79 21 21 1659 34839
4963	103995622 2375 108573902 122896510 509.813212257805 599.633452635126 68 21 21 1428 29988
4964	103997997 2750 108536210 122884733 509.523067004008 599.555954496253 79 21 21 1659 34839
4965	104000747 3341 108603693 122933863 510.014300686507 599.888946142227 96 21 21 2016 42336
4966	104004088 2473 108640433 122949791 510.246668157301 599.994631492414 71 21 21 1491 31311
4967	104006561 2903 108641731 122906955 510.253637781284 599.70465502666 83 21 21 1743 36603
4968	104009464 2755 108635860 122940100 510.216034056509 599.935672005001 79 22 22 1738 38236
4969	104012219 2818 108731955 122760859 510.859146745924 598.883829299651 81 21 21 1701 35721
4970	104015037 2687 108650729 122724544 510.319432117063 598.680200070901 77 21 21 1617 33957
4971	104017724 2586 108634732 122865680 510.20808103586 599.439401486004 74 21 21 1554 32634
4972	104020310 3241 108555260 122917434 509.669843821224 599.77775002998 93 21 21 1953 41013
4973	104023551 2824 108718454 122932025 510.78176848956 599.877254422186 81 21 21 1701 35721
4974	104026375 2787 108549607 122900675 509.62384202482 599.661564511627 80 21 21 1680 35280
4975	104029162 2760 108558325 122914053 509.687091721374 599.753546051739 79 21 21 1659 34839
4976	104031922 3002 108816009 122922551 511.398467567127 599.815177501469 86 21 21 1806 37926
4977	104034924 2519 108553327 122872470 509.654027359139 599.480754521582 72 22 22 1584 34848
4978	104037443 2547 108632319 122786094 510.193053993337 599.024624740446 73 21 21 1533 32193
4979	104039990 3141 108547573 122877182 509.608454240406 599.51003233379 90 21 21 1890 39690
4980	104043131 2616 108622926 122715371 510.137380048926 598.63130062272 75 21 21 1575 33075
4981	104045747 2788 108825672 122854461 511.466047204878 599.380361413637 80 22 22 1760 38720
4982	104048535 2829 108547992 122890174 509.611804767484 599.591385800467 81 21 21 1701 35721
4983	104051364 2516 108553507 122896426 509.65541872312 599.632819148635 72 21 21 1512 31752
4984	104053880 2552 108800899 122939468 511.280883177855 599.931195949756 73 21 21 1533 32193
4985	104056432 2479 108652938 122669101 510.337605456585 598.342132271637 71 21 21 1491 31311
4986	104058911 3107 108771612 122873817 511.089637401758 599.489493462806 89 21 21 1869 39249
4987	104062018 2829 108625706 122940445 510.15391819431 599.938180933359 81 21 21 1701 35721
4988	104064847 2895 108557339 122877041 509.67831056392 599.509019892559 83 22 22 1826 40172
4989	104067742 2867 108553464 122727806 509.655109021545 598.701096933985 82 21 21 1722 36162
4990	104070609 2903 108788437 122803556 511.19264548028 599.120279228164 83 21 21 1743 36603
4991	104073512 2405 108668765 122806581 510.447341766502 599.131436113861 69 21 21 1449 30429
4992	104075917 3244 108724271 122793971 510.818248748948 599.075757256981 93 21 21 1953 41013
4993	104079161 3144 108622587 122868680 510.135123204053 599.457102801838 90 21 21 1890 39690
4994	104082305 2863 108569050 122909358 509.779004386342 599.721730059185 82 21 21 1722 36162
4995	104085168 3350 108574602 122916211 509.819737486164 599.768626538958 96 21 21 2016 42336
4996	104088518 3738 108673661 122724189 510.485844457385 598.677632317771 107 21 21 2247 47187
4997	104092256 2686 108533029 122886252 509.498346072876 599.565513753924 77 21 21 1617 33957
4998	104094942 2791 108810724 122864171 511.356030744292 599.431325123246 80 22 22 1760 38720
4999	104097733 3065 108629391 122776595 510.175862282426 598.967573966333 88 21 21 1848 38808
5187	104100798 1702 108567644 122915839 509.766118734179 599.766118734179 46 1731 1776 80661 141447171
5296	104102500 1665 108745796 122772789 510.949269816674 598.949269816674 45 2255 2299 102465 233320395
5657	104104165 34 109193416 109193416 513.539459386096 513.539459386096 1 8 8 8 64
5828	104104199 34 116574708 116574708 559.201307759293 559.201307759293 1 8 8 8 64
5980	104104233 35 119836900 119836900 579.739499497521 579.739499497521 1 10 10 10 100
6361	104104268 35 118257125 118257125 569.500103348428 569.500103348428 1 10 10 10 100
6390	104104303 35 115632038 115632038 553.960106872538 553.960106872538 1 10 10 10 100
6424	104104338 35 119802177 119802177 579.558348329805 579.558348329805 1 10 10 10 100
6509	104104373 35 120027066 120027066 580.760584190331 580.760584190331 1 10 10 10 100
6712	104104408 1665 108605474 122616546 510.029538037191 598.029538037191 45 3838 3882 173700 670489590
6748	104106073 34 109759354 109759354 516.84430381476 516.84430381476 1 10 10 10 100
6919	104106107 34 116560137 116560137 559.128484423355 559.128484423355 1 9 9 9 81
6947	104106141 34 109735984 109735984 516.683524047581 516.683524047581 1 9 9 9 81
6957	104106175 68 115608892 119999909 553.802538377129 580.578466934114 2 8 9 17 145
7170	104106243 33 110177142 110177142 519.60827663943 519.60827663943 1 6 6 6 36
7187	104106276 68 109158917 110205884 513.392772150956 519.821424037741 2 8 9 17 145
7282	104106344 35 118295201 118295201 569.792479290266 569.792479290266 1 10 10 10 100

