file 9859477 1533508068                                         
version 2
run General-1-20180806-00:27:10-1966
attr configname General
attr datetime 20180806-00:27:10
attr experiment General
attr inifile gossipsub.ini
attr iterationvars $0=500
attr iterationvarsf 500-
attr measurement $0=500
attr network sharding.GossipSubNetwork
attr processid 1966
attr repetition 0
attr replication #0
attr resultdir results-gossipsub
attr runnumber 1
attr seedset 1
param *Network.nodeCount 500
param *Network.gossipRate 10.0Hz
param *Network.nodes[*].source.active true
param *Network.nodes[*].source.startTime 20s
param *Network.nodes[*].source.stopTime 580s
param *Network.nodes[*].lazyNotifier.notificationInterval 0.1s
param *Network.nodes[*].missingTracker.waitTime 2s
param *Network.nodes[*].connectionManager.numRandomNeighbors 5
param *Network.nodes[*].connectionManager.numNearNeighbors 5
param *Network.nodes[*].connectionManager.passiveListSize 20
param *Network.nodes[*].connectionManager.contactNodes "\"0 1 2\""
param *Network.nodes[*].connectionManager.activeHeartbeatInterval 2.0
param *Network.nodes[*].connectionManager.joinTTL 1
param *Network.nodes[*].connectionManager.forwardJoinTTL 1
param *Network.nodes[*].connectionManager.shuffleInterval 2.0
param *Network.nodes[*].connectionManager.activeShufflingSize 5
param *Network.nodes[*].connectionManager.passiveShufflingSize 5
param *Network.nodes[*].connectionManager.shuffleTTL 1

vector 0 GossipSubNetwork.nodes[38].connectionManager passiveListUpdate:vector ETV
vector 1 GossipSubNetwork.nodes[246].connectionManager passiveListUpdate:vector ETV
vector 2 GossipSubNetwork.nodes[50].connectionManager passiveListUpdate:vector ETV
vector 3 GossipSubNetwork.nodes[166].connectionManager passiveListUpdate:vector ETV
vector 4 GossipSubNetwork.nodes[121].connectionManager passiveListUpdate:vector ETV
vector 5 GossipSubNetwork.nodes[149].connectionManager passiveListUpdate:vector ETV
vector 6 GossipSubNetwork.nodes[344].connectionManager passiveListUpdate:vector ETV
vector 7 GossipSubNetwork.nodes[478].connectionManager passiveListUpdate:vector ETV
vector 8 GossipSubNetwork.nodes[44].connectionManager passiveListUpdate:vector ETV
vector 9 GossipSubNetwork.nodes[213].connectionManager passiveListUpdate:vector ETV
vector 10 GossipSubNetwork.nodes[142].connectionManager passiveListUpdate:vector ETV
vector 11 GossipSubNetwork.nodes[448].connectionManager passiveListUpdate:vector ETV
vector 12 GossipSubNetwork.nodes[28].connectionManager passiveListUpdate:vector ETV
vector 13 GossipSubNetwork.nodes[393].connectionManager passiveListUpdate:vector ETV
vector 14 GossipSubNetwork.nodes[332].connectionManager passiveListUpdate:vector ETV
vector 15 GossipSubNetwork.nodes[153].connectionManager passiveListUpdate:vector ETV
vector 16 GossipSubNetwork.nodes[220].connectionManager passiveListUpdate:vector ETV
vector 17 GossipSubNetwork.nodes[443].connectionManager passiveListUpdate:vector ETV
vector 18 GossipSubNetwork.nodes[106].connectionManager passiveListUpdate:vector ETV
vector 19 GossipSubNetwork.nodes[283].connectionManager passiveListUpdate:vector ETV
vector 20 GossipSubNetwork.nodes[114].connectionManager passiveListUpdate:vector ETV
vector 21 GossipSubNetwork.nodes[119].connectionManager passiveListUpdate:vector ETV
vector 22 GossipSubNetwork.nodes[181].connectionManager passiveListUpdate:vector ETV
vector 23 GossipSubNetwork.nodes[27].connectionManager passiveListUpdate:vector ETV
vector 24 GossipSubNetwork.nodes[297].connectionManager passiveListUpdate:vector ETV
vector 25 GossipSubNetwork.nodes[335].connectionManager passiveListUpdate:vector ETV
vector 26 GossipSubNetwork.nodes[475].connectionManager passiveListUpdate:vector ETV
vector 27 GossipSubNetwork.nodes[374].connectionManager passiveListUpdate:vector ETV
vector 28 GossipSubNetwork.nodes[123].connectionManager passiveListUpdate:vector ETV
vector 29 GossipSubNetwork.nodes[326].connectionManager passiveListUpdate:vector ETV
vector 30 GossipSubNetwork.nodes[184].connectionManager passiveListUpdate:vector ETV
vector 31 GossipSubNetwork.nodes[499].connectionManager passiveListUpdate:vector ETV
vector 32 GossipSubNetwork.nodes[128].connectionManager passiveListUpdate:vector ETV
vector 33 GossipSubNetwork.nodes[150].connectionManager passiveListUpdate:vector ETV
vector 34 GossipSubNetwork.nodes[129].connectionManager passiveListUpdate:vector ETV
vector 35 GossipSubNetwork.nodes[243].connectionManager passiveListUpdate:vector ETV
vector 36 GossipSubNetwork.nodes[4].connectionManager passiveListUpdate:vector ETV
vector 37 GossipSubNetwork.nodes[177].connectionManager passiveListUpdate:vector ETV
vector 38 GossipSubNetwork.nodes[154].connectionManager passiveListUpdate:vector ETV
vector 39 GossipSubNetwork.nodes[22].connectionManager passiveListUpdate:vector ETV
vector 40 GossipSubNetwork.nodes[48].connectionManager passiveListUpdate:vector ETV
vector 41 GossipSubNetwork.nodes[233].connectionManager passiveListUpdate:vector ETV
vector 42 GossipSubNetwork.nodes[120].connectionManager passiveListUpdate:vector ETV
vector 43 GossipSubNetwork.nodes[183].connectionManager passiveListUpdate:vector ETV
vector 44 GossipSubNetwork.nodes[494].connectionManager passiveListUpdate:vector ETV
vector 45 GossipSubNetwork.nodes[269].connectionManager passiveListUpdate:vector ETV
vector 46 GossipSubNetwork.nodes[277].connectionManager passiveListUpdate:vector ETV
vector 47 GossipSubNetwork.nodes[196].connectionManager passiveListUpdate:vector ETV
vector 48 GossipSubNetwork.nodes[271].connectionManager passiveListUpdate:vector ETV
vector 49 GossipSubNetwork.nodes[309].connectionManager passiveListUpdate:vector ETV
vector 50 GossipSubNetwork.nodes[35].connectionManager passiveListUpdate:vector ETV
vector 51 GossipSubNetwork.nodes[299].connectionManager passiveListUpdate:vector ETV
vector 52 GossipSubNetwork.nodes[247].connectionManager passiveListUpdate:vector ETV
vector 53 GossipSubNetwork.nodes[276].connectionManager passiveListUpdate:vector ETV
vector 54 GossipSubNetwork.nodes[384].connectionManager passiveListUpdate:vector ETV
vector 55 GossipSubNetwork.nodes[425].connectionManager passiveListUpdate:vector ETV
vector 56 GossipSubNetwork.nodes[312].connectionManager passiveListUpdate:vector ETV
vector 57 GossipSubNetwork.nodes[472].connectionManager passiveListUpdate:vector ETV
vector 58 GossipSubNetwork.nodes[383].connectionManager passiveListUpdate:vector ETV
vector 59 GossipSubNetwork.nodes[216].connectionManager passiveListUpdate:vector ETV
vector 60 GossipSubNetwork.nodes[353].connectionManager passiveListUpdate:vector ETV
vector 61 GossipSubNetwork.nodes[219].connectionManager passiveListUpdate:vector ETV
vector 62 GossipSubNetwork.nodes[5].connectionManager passiveListUpdate:vector ETV
vector 63 GossipSubNetwork.nodes[141].connectionManager passiveListUpdate:vector ETV
vector 64 GossipSubNetwork.nodes[361].connectionManager passiveListUpdate:vector ETV
vector 65 GossipSubNetwork.nodes[215].connectionManager passiveListUpdate:vector ETV
vector 66 GossipSubNetwork.nodes[212].connectionManager passiveListUpdate:vector ETV
vector 67 GossipSubNetwork.nodes[101].connectionManager passiveListUpdate:vector ETV
vector 68 GossipSubNetwork.nodes[122].connectionManager passiveListUpdate:vector ETV
vector 69 GossipSubNetwork.nodes[408].connectionManager passiveListUpdate:vector ETV
vector 70 GossipSubNetwork.nodes[160].connectionManager passiveListUpdate:vector ETV
vector 71 GossipSubNetwork.nodes[339].connectionManager passiveListUpdate:vector ETV
vector 72 GossipSubNetwork.nodes[240].connectionManager passiveListUpdate:vector ETV
vector 73 GossipSubNetwork.nodes[284].connectionManager passiveListUpdate:vector ETV
vector 74 GossipSubNetwork.nodes[313].connectionManager passiveListUpdate:vector ETV
vector 75 GossipSubNetwork.nodes[322].connectionManager passiveListUpdate:vector ETV
vector 76 GossipSubNetwork.nodes[371].connectionManager passiveListUpdate:vector ETV
vector 77 GossipSubNetwork.nodes[433].connectionManager passiveListUpdate:vector ETV
vector 78 GossipSubNetwork.nodes[14].connectionManager passiveListUpdate:vector ETV
vector 79 GossipSubNetwork.nodes[278].connectionManager passiveListUpdate:vector ETV
vector 80 GossipSubNetwork.nodes[53].connectionManager passiveListUpdate:vector ETV
vector 81 GossipSubNetwork.nodes[320].connectionManager passiveListUpdate:vector ETV
vector 82 GossipSubNetwork.nodes[352].connectionManager passiveListUpdate:vector ETV
vector 83 GossipSubNetwork.nodes[6].connectionManager passiveListUpdate:vector ETV
vector 84 GossipSubNetwork.nodes[65].connectionManager passiveListUpdate:vector ETV
vector 85 GossipSubNetwork.nodes[179].connectionManager passiveListUpdate:vector ETV
vector 86 GossipSubNetwork.nodes[71].connectionManager passiveListUpdate:vector ETV
vector 87 GossipSubNetwork.nodes[265].connectionManager passiveListUpdate:vector ETV
vector 88 GossipSubNetwork.nodes[190].connectionManager passiveListUpdate:vector ETV
vector 89 GossipSubNetwork.nodes[492].connectionManager passiveListUpdate:vector ETV
vector 90 GossipSubNetwork.nodes[465].connectionManager passiveListUpdate:vector ETV
vector 91 GossipSubNetwork.nodes[369].connectionManager passiveListUpdate:vector ETV
vector 92 GossipSubNetwork.nodes[402].connectionManager passiveListUpdate:vector ETV
vector 93 GossipSubNetwork.nodes[273].connectionManager passiveListUpdate:vector ETV
vector 94 GossipSubNetwork.nodes[441].connectionManager passiveListUpdate:vector ETV
vector 95 GossipSubNetwork.nodes[55].connectionManager passiveListUpdate:vector ETV
vector 96 GossipSubNetwork.nodes[349].connectionManager passiveListUpdate:vector ETV
vector 97 GossipSubNetwork.nodes[268].connectionManager passiveListUpdate:vector ETV
vector 98 GossipSubNetwork.nodes[486].connectionManager passiveListUpdate:vector ETV
vector 99 GossipSubNetwork.nodes[224].connectionManager passiveListUpdate:vector ETV
vector 100 GossipSubNetwork.nodes[84].connectionManager passiveListUpdate:vector ETV
vector 101 GossipSubNetwork.nodes[206].connectionManager passiveListUpdate:vector ETV
vector 102 GossipSubNetwork.nodes[252].connectionManager passiveListUpdate:vector ETV
vector 103 GossipSubNetwork.nodes[60].connectionManager passiveListUpdate:vector ETV
vector 104 GossipSubNetwork.nodes[292].connectionManager passiveListUpdate:vector ETV
vector 105 GossipSubNetwork.nodes[419].connectionManager passiveListUpdate:vector ETV
vector 106 GossipSubNetwork.nodes[110].connectionManager passiveListUpdate:vector ETV
vector 107 GossipSubNetwork.nodes[442].connectionManager passiveListUpdate:vector ETV
vector 108 GossipSubNetwork.nodes[12].connectionManager passiveListUpdate:vector ETV
vector 109 GossipSubNetwork.nodes[423].connectionManager passiveListUpdate:vector ETV
vector 110 GossipSubNetwork.nodes[205].connectionManager passiveListUpdate:vector ETV
vector 111 GossipSubNetwork.nodes[49].connectionManager passiveListUpdate:vector ETV
vector 112 GossipSubNetwork.nodes[288].connectionManager passiveListUpdate:vector ETV
vector 113 GossipSubNetwork.nodes[387].connectionManager passiveListUpdate:vector ETV
vector 114 GossipSubNetwork.nodes[245].connectionManager passiveListUpdate:vector ETV
vector 115 GossipSubNetwork.nodes[459].connectionManager passiveListUpdate:vector ETV
vector 116 GossipSubNetwork.nodes[165].connectionManager passiveListUpdate:vector ETV
vector 117 GossipSubNetwork.nodes[314].connectionManager passiveListUpdate:vector ETV
vector 118 GossipSubNetwork.nodes[411].connectionManager passiveListUpdate:vector ETV
vector 119 GossipSubNetwork.nodes[421].connectionManager passiveListUpdate:vector ETV
vector 120 GossipSubNetwork.nodes[394].connectionManager passiveListUpdate:vector ETV
vector 121 GossipSubNetwork.nodes[238].connectionManager passiveListUpdate:vector ETV
vector 122 GossipSubNetwork.nodes[304].connectionManager passiveListUpdate:vector ETV
vector 123 GossipSubNetwork.nodes[204].connectionManager passiveListUpdate:vector ETV
vector 124 GossipSubNetwork.nodes[437].connectionManager passiveListUpdate:vector ETV
vector 125 GossipSubNetwork.nodes[30].connectionManager passiveListUpdate:vector ETV
vector 126 GossipSubNetwork.nodes[325].connectionManager passiveListUpdate:vector ETV
vector 127 GossipSubNetwork.nodes[89].connectionManager passiveListUpdate:vector ETV
vector 128 GossipSubNetwork.nodes[161].connectionManager passiveListUpdate:vector ETV
vector 129 GossipSubNetwork.nodes[422].connectionManager passiveListUpdate:vector ETV
vector 130 GossipSubNetwork.nodes[328].connectionManager passiveListUpdate:vector ETV
vector 131 GossipSubNetwork.nodes[180].connectionManager passiveListUpdate:vector ETV
vector 132 GossipSubNetwork.nodes[317].connectionManager passiveListUpdate:vector ETV
vector 133 GossipSubNetwork.nodes[336].connectionManager passiveListUpdate:vector ETV
vector 134 GossipSubNetwork.nodes[172].connectionManager passiveListUpdate:vector ETV
vector 135 GossipSubNetwork.nodes[42].connectionManager passiveListUpdate:vector ETV
vector 136 GossipSubNetwork.nodes[406].connectionManager passiveListUpdate:vector ETV
vector 137 GossipSubNetwork.nodes[33].connectionManager passiveListUpdate:vector ETV
vector 138 GossipSubNetwork.nodes[10].connectionManager passiveListUpdate:vector ETV
vector 139 GossipSubNetwork.nodes[316].connectionManager passiveListUpdate:vector ETV
vector 140 GossipSubNetwork.nodes[372].connectionManager passiveListUpdate:vector ETV
vector 141 GossipSubNetwork.nodes[473].connectionManager passiveListUpdate:vector ETV
vector 142 GossipSubNetwork.nodes[147].connectionManager passiveListUpdate:vector ETV
vector 143 GossipSubNetwork.nodes[303].connectionManager passiveListUpdate:vector ETV
vector 144 GossipSubNetwork.nodes[201].connectionManager passiveListUpdate:vector ETV
vector 145 GossipSubNetwork.nodes[399].connectionManager passiveListUpdate:vector ETV
vector 146 GossipSubNetwork.nodes[254].connectionManager passiveListUpdate:vector ETV
vector 147 GossipSubNetwork.nodes[174].connectionManager passiveListUpdate:vector ETV
vector 148 GossipSubNetwork.nodes[99].connectionManager passiveListUpdate:vector ETV
vector 149 GossipSubNetwork.nodes[125].connectionManager passiveListUpdate:vector ETV
vector 150 GossipSubNetwork.nodes[449].connectionManager passiveListUpdate:vector ETV
vector 151 GossipSubNetwork.nodes[98].connectionManager passiveListUpdate:vector ETV
vector 152 GossipSubNetwork.nodes[289].connectionManager passiveListUpdate:vector ETV
vector 153 GossipSubNetwork.nodes[488].connectionManager passiveListUpdate:vector ETV
vector 154 GossipSubNetwork.nodes[428].connectionManager passiveListUpdate:vector ETV
vector 155 GossipSubNetwork.nodes[392].connectionManager passiveListUpdate:vector ETV
vector 156 GossipSubNetwork.nodes[94].connectionManager passiveListUpdate:vector ETV
vector 157 GossipSubNetwork.nodes[409].connectionManager passiveListUpdate:vector ETV
vector 158 GossipSubNetwork.nodes[291].connectionManager passiveListUpdate:vector ETV
vector 159 GossipSubNetwork.nodes[191].connectionManager passiveListUpdate:vector ETV
vector 160 GossipSubNetwork.nodes[66].connectionManager passiveListUpdate:vector ETV
vector 161 GossipSubNetwork.nodes[92].connectionManager passiveListUpdate:vector ETV
vector 162 GossipSubNetwork.nodes[267].connectionManager passiveListUpdate:vector ETV
vector 163 GossipSubNetwork.nodes[438].connectionManager passiveListUpdate:vector ETV
vector 164 GossipSubNetwork.nodes[237].connectionManager passiveListUpdate:vector ETV
vector 165 GossipSubNetwork.nodes[137].connectionManager passiveListUpdate:vector ETV
vector 166 GossipSubNetwork.nodes[64].connectionManager passiveListUpdate:vector ETV
vector 167 GossipSubNetwork.nodes[75].connectionManager passiveListUpdate:vector ETV
vector 168 GossipSubNetwork.nodes[306].connectionManager passiveListUpdate:vector ETV
vector 169 GossipSubNetwork.nodes[260].connectionManager passiveListUpdate:vector ETV
vector 170 GossipSubNetwork.nodes[479].connectionManager passiveListUpdate:vector ETV
vector 171 GossipSubNetwork.nodes[103].connectionManager passiveListUpdate:vector ETV
vector 172 GossipSubNetwork.nodes[214].connectionManager passiveListUpdate:vector ETV
vector 173 GossipSubNetwork.nodes[358].connectionManager passiveListUpdate:vector ETV
vector 174 GossipSubNetwork.nodes[279].connectionManager passiveListUpdate:vector ETV
vector 175 GossipSubNetwork.nodes[178].connectionManager passiveListUpdate:vector ETV
vector 176 GossipSubNetwork.nodes[133].connectionManager passiveListUpdate:vector ETV
vector 177 GossipSubNetwork.nodes[315].connectionManager passiveListUpdate:vector ETV
vector 178 GossipSubNetwork.nodes[221].connectionManager passiveListUpdate:vector ETV
vector 179 GossipSubNetwork.nodes[404].connectionManager passiveListUpdate:vector ETV
vector 180 GossipSubNetwork.nodes[365].connectionManager passiveListUpdate:vector ETV
vector 181 GossipSubNetwork.nodes[295].connectionManager passiveListUpdate:vector ETV
vector 182 GossipSubNetwork.nodes[403].connectionManager passiveListUpdate:vector ETV
vector 183 GossipSubNetwork.nodes[146].connectionManager passiveListUpdate:vector ETV
vector 184 GossipSubNetwork.nodes[152].connectionManager passiveListUpdate:vector ETV
vector 185 GossipSubNetwork.nodes[439].connectionManager passiveListUpdate:vector ETV
vector 186 GossipSubNetwork.nodes[170].connectionManager passiveListUpdate:vector ETV
vector 187 GossipSubNetwork.nodes[58].connectionManager passiveListUpdate:vector ETV
vector 188 GossipSubNetwork.nodes[381].connectionManager passiveListUpdate:vector ETV
vector 189 GossipSubNetwork.nodes[79].connectionManager passiveListUpdate:vector ETV
vector 190 GossipSubNetwork.nodes[250].connectionManager passiveListUpdate:vector ETV
vector 191 GossipSubNetwork.nodes[228].connectionManager passiveListUpdate:vector ETV
vector 192 GossipSubNetwork.nodes[264].connectionManager passiveListUpdate:vector ETV
vector 193 GossipSubNetwork.nodes[16].connectionManager passiveListUpdate:vector ETV
vector 194 GossipSubNetwork.nodes[97].connectionManager passiveListUpdate:vector ETV
vector 195 GossipSubNetwork.nodes[420].connectionManager passiveListUpdate:vector ETV
vector 196 GossipSubNetwork.nodes[111].connectionManager passiveListUpdate:vector ETV
vector 197 GossipSubNetwork.nodes[396].connectionManager passiveListUpdate:vector ETV
vector 198 GossipSubNetwork.nodes[458].connectionManager passiveListUpdate:vector ETV
vector 199 GossipSubNetwork.nodes[173].connectionManager passiveListUpdate:vector ETV
vector 200 GossipSubNetwork.nodes[145].connectionManager passiveListUpdate:vector ETV
vector 201 GossipSubNetwork.nodes[230].connectionManager passiveListUpdate:vector ETV
vector 202 GossipSubNetwork.nodes[231].connectionManager passiveListUpdate:vector ETV
vector 203 GossipSubNetwork.nodes[261].connectionManager passiveListUpdate:vector ETV
vector 204 GossipSubNetwork.nodes[331].connectionManager passiveListUpdate:vector ETV
vector 205 GossipSubNetwork.nodes[90].connectionManager passiveListUpdate:vector ETV
vector 206 GossipSubNetwork.nodes[487].connectionManager passiveListUpdate:vector ETV
vector 207 GossipSubNetwork.nodes[100].connectionManager passiveListUpdate:vector ETV
vector 208 GossipSubNetwork.nodes[155].connectionManager passiveListUpdate:vector ETV
vector 209 GossipSubNetwork.nodes[319].connectionManager passiveListUpdate:vector ETV
vector 210 GossipSubNetwork.nodes[385].connectionManager passiveListUpdate:vector ETV
vector 211 GossipSubNetwork.nodes[463].connectionManager passiveListUpdate:vector ETV
vector 212 GossipSubNetwork.nodes[235].connectionManager passiveListUpdate:vector ETV
vector 213 GossipSubNetwork.nodes[26].connectionManager passiveListUpdate:vector ETV
vector 214 GossipSubNetwork.nodes[182].connectionManager passiveListUpdate:vector ETV
vector 215 GossipSubNetwork.nodes[164].connectionManager passiveListUpdate:vector ETV
vector 216 GossipSubNetwork.nodes[45].connectionManager passiveListUpdate:vector ETV
vector 217 GossipSubNetwork.nodes[77].connectionManager passiveListUpdate:vector ETV
vector 218 GossipSubNetwork.nodes[318].connectionManager passiveListUpdate:vector ETV
vector 219 GossipSubNetwork.nodes[202].connectionManager passiveListUpdate:vector ETV
vector 220 GossipSubNetwork.nodes[410].connectionManager passiveListUpdate:vector ETV
vector 221 GossipSubNetwork.nodes[132].connectionManager passiveListUpdate:vector ETV
vector 222 GossipSubNetwork.nodes[59].connectionManager passiveListUpdate:vector ETV
vector 223 GossipSubNetwork.nodes[270].connectionManager passiveListUpdate:vector ETV
vector 224 GossipSubNetwork.nodes[74].connectionManager passiveListUpdate:vector ETV
vector 225 GossipSubNetwork.nodes[388].connectionManager passiveListUpdate:vector ETV
vector 226 GossipSubNetwork.nodes[390].connectionManager passiveListUpdate:vector ETV
vector 227 GossipSubNetwork.nodes[185].connectionManager passiveListUpdate:vector ETV
vector 228 GossipSubNetwork.nodes[301].connectionManager passiveListUpdate:vector ETV
vector 229 GossipSubNetwork.nodes[135].connectionManager passiveListUpdate:vector ETV
vector 230 GossipSubNetwork.nodes[157].connectionManager passiveListUpdate:vector ETV
vector 231 GossipSubNetwork.nodes[363].connectionManager passiveListUpdate:vector ETV
vector 232 GossipSubNetwork.nodes[337].connectionManager passiveListUpdate:vector ETV
vector 233 GossipSubNetwork.nodes[63].connectionManager passiveListUpdate:vector ETV
vector 234 GossipSubNetwork.nodes[483].connectionManager passiveListUpdate:vector ETV
vector 235 GossipSubNetwork.nodes[144].connectionManager passiveListUpdate:vector ETV
vector 236 GossipSubNetwork.nodes[407].connectionManager passiveListUpdate:vector ETV
vector 237 GossipSubNetwork.nodes[116].connectionManager passiveListUpdate:vector ETV
vector 238 GossipSubNetwork.nodes[290].connectionManager passiveListUpdate:vector ETV
vector 239 GossipSubNetwork.nodes[197].connectionManager passiveListUpdate:vector ETV
vector 240 GossipSubNetwork.nodes[236].connectionManager passiveListUpdate:vector ETV
vector 241 GossipSubNetwork.nodes[117].connectionManager passiveListUpdate:vector ETV
vector 242 GossipSubNetwork.nodes[389].connectionManager passiveListUpdate:vector ETV
vector 243 GossipSubNetwork.nodes[68].connectionManager passiveListUpdate:vector ETV
vector 244 GossipSubNetwork.nodes[457].connectionManager passiveListUpdate:vector ETV
vector 245 GossipSubNetwork.nodes[257].connectionManager passiveListUpdate:vector ETV
vector 246 GossipSubNetwork.nodes[19].connectionManager passiveListUpdate:vector ETV
vector 247 GossipSubNetwork.nodes[87].connectionManager passiveListUpdate:vector ETV
vector 248 GossipSubNetwork.nodes[294].connectionManager passiveListUpdate:vector ETV
vector 249 GossipSubNetwork.nodes[34].connectionManager passiveListUpdate:vector ETV
vector 250 GossipSubNetwork.nodes[140].connectionManager passiveListUpdate:vector ETV
vector 251 GossipSubNetwork.nodes[258].connectionManager passiveListUpdate:vector ETV
vector 252 GossipSubNetwork.nodes[426].connectionManager passiveListUpdate:vector ETV
vector 253 GossipSubNetwork.nodes[287].connectionManager passiveListUpdate:vector ETV
vector 254 GossipSubNetwork.nodes[17].connectionManager passiveListUpdate:vector ETV
vector 255 GossipSubNetwork.nodes[256].connectionManager passiveListUpdate:vector ETV
vector 256 GossipSubNetwork.nodes[323].connectionManager passiveListUpdate:vector ETV
vector 257 GossipSubNetwork.nodes[462].connectionManager passiveListUpdate:vector ETV
vector 258 GossipSubNetwork.nodes[455].connectionManager passiveListUpdate:vector ETV
vector 259 GossipSubNetwork.nodes[380].connectionManager passiveListUpdate:vector ETV
vector 260 GossipSubNetwork.nodes[211].connectionManager passiveListUpdate:vector ETV
vector 261 GossipSubNetwork.nodes[95].connectionManager passiveListUpdate:vector ETV
vector 262 GossipSubNetwork.nodes[207].connectionManager passiveListUpdate:vector ETV
vector 263 GossipSubNetwork.nodes[210].connectionManager passiveListUpdate:vector ETV
vector 264 GossipSubNetwork.nodes[46].connectionManager passiveListUpdate:vector ETV
vector 265 GossipSubNetwork.nodes[460].connectionManager passiveListUpdate:vector ETV
vector 266 GossipSubNetwork.nodes[395].connectionManager passiveListUpdate:vector ETV
vector 267 GossipSubNetwork.nodes[43].connectionManager passiveListUpdate:vector ETV
vector 268 GossipSubNetwork.nodes[91].connectionManager passiveListUpdate:vector ETV
vector 269 GossipSubNetwork.nodes[7].connectionManager passiveListUpdate:vector ETV
vector 270 GossipSubNetwork.nodes[347].connectionManager passiveListUpdate:vector ETV
vector 271 GossipSubNetwork.nodes[222].connectionManager passiveListUpdate:vector ETV
vector 272 GossipSubNetwork.nodes[158].connectionManager passiveListUpdate:vector ETV
vector 273 GossipSubNetwork.nodes[169].connectionManager passiveListUpdate:vector ETV
vector 274 GossipSubNetwork.nodes[450].connectionManager passiveListUpdate:vector ETV
vector 275 GossipSubNetwork.nodes[298].connectionManager passiveListUpdate:vector ETV
vector 276 GossipSubNetwork.nodes[379].connectionManager passiveListUpdate:vector ETV
vector 277 GossipSubNetwork.nodes[405].connectionManager passiveListUpdate:vector ETV
vector 278 GossipSubNetwork.nodes[72].connectionManager passiveListUpdate:vector ETV
vector 279 GossipSubNetwork.nodes[424].connectionManager passiveListUpdate:vector ETV
vector 280 GossipSubNetwork.nodes[470].connectionManager passiveListUpdate:vector ETV
vector 281 GossipSubNetwork.nodes[468].connectionManager passiveListUpdate:vector ETV
vector 282 GossipSubNetwork.nodes[431].connectionManager passiveListUpdate:vector ETV
vector 283 GossipSubNetwork.nodes[351].connectionManager passiveListUpdate:vector ETV
vector 284 GossipSubNetwork.nodes[255].connectionManager passiveListUpdate:vector ETV
vector 285 GossipSubNetwork.nodes[41].connectionManager passiveListUpdate:vector ETV
vector 286 GossipSubNetwork.nodes[253].connectionManager passiveListUpdate:vector ETV
vector 287 GossipSubNetwork.nodes[143].connectionManager passiveListUpdate:vector ETV
vector 288 GossipSubNetwork.nodes[357].connectionManager passiveListUpdate:vector ETV
vector 289 GossipSubNetwork.nodes[401].connectionManager passiveListUpdate:vector ETV
vector 290 GossipSubNetwork.nodes[467].connectionManager passiveListUpdate:vector ETV
vector 291 GossipSubNetwork.nodes[109].connectionManager passiveListUpdate:vector ETV
vector 292 GossipSubNetwork.nodes[307].connectionManager passiveListUpdate:vector ETV
vector 293 GossipSubNetwork.nodes[194].connectionManager passiveListUpdate:vector ETV
vector 294 GossipSubNetwork.nodes[482].connectionManager passiveListUpdate:vector ETV
vector 295 GossipSubNetwork.nodes[54].connectionManager passiveListUpdate:vector ETV
vector 296 GossipSubNetwork.nodes[248].connectionManager passiveListUpdate:vector ETV
vector 297 GossipSubNetwork.nodes[18].connectionManager passiveListUpdate:vector ETV
vector 298 GossipSubNetwork.nodes[296].connectionManager passiveListUpdate:vector ETV
vector 299 GossipSubNetwork.nodes[469].connectionManager passiveListUpdate:vector ETV
vector 300 GossipSubNetwork.nodes[134].connectionManager passiveListUpdate:vector ETV
vector 301 GossipSubNetwork.nodes[105].connectionManager passiveListUpdate:vector ETV
vector 302 GossipSubNetwork.nodes[375].connectionManager passiveListUpdate:vector ETV
vector 303 GossipSubNetwork.nodes[31].connectionManager passiveListUpdate:vector ETV
vector 304 GossipSubNetwork.nodes[171].connectionManager passiveListUpdate:vector ETV
vector 305 GossipSubNetwork.nodes[391].connectionManager passiveListUpdate:vector ETV
vector 306 GossipSubNetwork.nodes[57].connectionManager passiveListUpdate:vector ETV
vector 307 GossipSubNetwork.nodes[82].connectionManager passiveListUpdate:vector ETV
vector 308 GossipSubNetwork.nodes[13].connectionManager passiveListUpdate:vector ETV
vector 309 GossipSubNetwork.nodes[83].connectionManager passiveListUpdate:vector ETV
vector 310 GossipSubNetwork.nodes[227].connectionManager passiveListUpdate:vector ETV
vector 311 GossipSubNetwork.nodes[127].connectionManager passiveListUpdate:vector ETV
vector 312 GossipSubNetwork.nodes[242].connectionManager passiveListUpdate:vector ETV
vector 313 GossipSubNetwork.nodes[52].connectionManager passiveListUpdate:vector ETV
vector 314 GossipSubNetwork.nodes[416].connectionManager passiveListUpdate:vector ETV
vector 315 GossipSubNetwork.nodes[355].connectionManager passiveListUpdate:vector ETV
vector 316 GossipSubNetwork.nodes[186].connectionManager passiveListUpdate:vector ETV
vector 317 GossipSubNetwork.nodes[112].connectionManager passiveListUpdate:vector ETV
vector 318 GossipSubNetwork.nodes[485].connectionManager passiveListUpdate:vector ETV
vector 319 GossipSubNetwork.nodes[489].connectionManager passiveListUpdate:vector ETV
vector 320 GossipSubNetwork.nodes[176].connectionManager passiveListUpdate:vector ETV
vector 321 GossipSubNetwork.nodes[330].connectionManager passiveListUpdate:vector ETV
vector 322 GossipSubNetwork.nodes[156].connectionManager passiveListUpdate:vector ETV
vector 323 GossipSubNetwork.nodes[266].connectionManager passiveListUpdate:vector ETV
vector 324 GossipSubNetwork.nodes[124].connectionManager passiveListUpdate:vector ETV
vector 325 GossipSubNetwork.nodes[432].connectionManager passiveListUpdate:vector ETV
vector 326 GossipSubNetwork.nodes[341].connectionManager passiveListUpdate:vector ETV
vector 327 GossipSubNetwork.nodes[413].connectionManager passiveListUpdate:vector ETV
vector 328 GossipSubNetwork.nodes[130].connectionManager passiveListUpdate:vector ETV
vector 329 GossipSubNetwork.nodes[113].connectionManager passiveListUpdate:vector ETV
vector 330 GossipSubNetwork.nodes[218].connectionManager passiveListUpdate:vector ETV
vector 331 GossipSubNetwork.nodes[88].connectionManager passiveListUpdate:vector ETV
vector 332 GossipSubNetwork.nodes[329].connectionManager passiveListUpdate:vector ETV
vector 333 GossipSubNetwork.nodes[377].connectionManager passiveListUpdate:vector ETV
vector 334 GossipSubNetwork.nodes[139].connectionManager passiveListUpdate:vector ETV
vector 335 GossipSubNetwork.nodes[343].connectionManager passiveListUpdate:vector ETV
vector 336 GossipSubNetwork.nodes[378].connectionManager passiveListUpdate:vector ETV
vector 337 GossipSubNetwork.nodes[282].connectionManager passiveListUpdate:vector ETV
vector 338 GossipSubNetwork.nodes[435].connectionManager passiveListUpdate:vector ETV
vector 339 GossipSubNetwork.nodes[272].connectionManager passiveListUpdate:vector ETV
vector 340 GossipSubNetwork.nodes[73].connectionManager passiveListUpdate:vector ETV
vector 341 GossipSubNetwork.nodes[62].connectionManager passiveListUpdate:vector ETV
vector 342 GossipSubNetwork.nodes[56].connectionManager passiveListUpdate:vector ETV
vector 343 GossipSubNetwork.nodes[412].connectionManager passiveListUpdate:vector ETV
vector 344 GossipSubNetwork.nodes[493].connectionManager passiveListUpdate:vector ETV
vector 345 GossipSubNetwork.nodes[338].connectionManager passiveListUpdate:vector ETV
vector 346 GossipSubNetwork.nodes[47].connectionManager passiveListUpdate:vector ETV
vector 347 GossipSubNetwork.nodes[476].connectionManager passiveListUpdate:vector ETV
vector 348 GossipSubNetwork.nodes[367].connectionManager passiveListUpdate:vector ETV
vector 349 GossipSubNetwork.nodes[11].connectionManager passiveListUpdate:vector ETV
vector 350 GossipSubNetwork.nodes[23].connectionManager passiveListUpdate:vector ETV
vector 351 GossipSubNetwork.nodes[480].connectionManager passiveListUpdate:vector ETV
vector 352 GossipSubNetwork.nodes[148].connectionManager passiveListUpdate:vector ETV
vector 353 GossipSubNetwork.nodes[187].connectionManager passiveListUpdate:vector ETV
vector 354 GossipSubNetwork.nodes[321].connectionManager passiveListUpdate:vector ETV
vector 355 GossipSubNetwork.nodes[497].connectionManager passiveListUpdate:vector ETV
vector 356 GossipSubNetwork.nodes[118].connectionManager passiveListUpdate:vector ETV
vector 357 GossipSubNetwork.nodes[108].connectionManager passiveListUpdate:vector ETV
vector 358 GossipSubNetwork.nodes[370].connectionManager passiveListUpdate:vector ETV
vector 359 GossipSubNetwork.nodes[417].connectionManager passiveListUpdate:vector ETV
vector 360 GossipSubNetwork.nodes[37].connectionManager passiveListUpdate:vector ETV
vector 361 GossipSubNetwork.nodes[415].connectionManager passiveListUpdate:vector ETV
vector 362 GossipSubNetwork.nodes[192].connectionManager passiveListUpdate:vector ETV
vector 363 GossipSubNetwork.nodes[115].connectionManager passiveListUpdate:vector ETV
vector 364 GossipSubNetwork.nodes[360].connectionManager passiveListUpdate:vector ETV
vector 365 GossipSubNetwork.nodes[81].connectionManager passiveListUpdate:vector ETV
vector 366 GossipSubNetwork.nodes[293].connectionManager passiveListUpdate:vector ETV
vector 367 GossipSubNetwork.nodes[259].connectionManager passiveListUpdate:vector ETV
vector 368 GossipSubNetwork.nodes[209].connectionManager passiveListUpdate:vector ETV
vector 369 GossipSubNetwork.nodes[471].connectionManager passiveListUpdate:vector ETV
vector 370 GossipSubNetwork.nodes[76].connectionManager passiveListUpdate:vector ETV
vector 371 GossipSubNetwork.nodes[225].connectionManager passiveListUpdate:vector ETV
vector 372 GossipSubNetwork.nodes[167].connectionManager passiveListUpdate:vector ETV
vector 373 GossipSubNetwork.nodes[3].connectionManager passiveListUpdate:vector ETV
vector 374 GossipSubNetwork.nodes[327].connectionManager passiveListUpdate:vector ETV
vector 375 GossipSubNetwork.nodes[354].connectionManager passiveListUpdate:vector ETV
vector 376 GossipSubNetwork.nodes[324].connectionManager passiveListUpdate:vector ETV
vector 377 GossipSubNetwork.nodes[446].connectionManager passiveListUpdate:vector ETV
vector 378 GossipSubNetwork.nodes[440].connectionManager passiveListUpdate:vector ETV
vector 379 GossipSubNetwork.nodes[67].connectionManager passiveListUpdate:vector ETV
vector 380 GossipSubNetwork.nodes[356].connectionManager passiveListUpdate:vector ETV
vector 381 GossipSubNetwork.nodes[86].connectionManager passiveListUpdate:vector ETV
vector 382 GossipSubNetwork.nodes[451].connectionManager passiveListUpdate:vector ETV
vector 383 GossipSubNetwork.nodes[151].connectionManager passiveListUpdate:vector ETV
vector 384 GossipSubNetwork.nodes[8].connectionManager passiveListUpdate:vector ETV
vector 385 GossipSubNetwork.nodes[484].connectionManager passiveListUpdate:vector ETV
vector 386 GossipSubNetwork.nodes[368].connectionManager passiveListUpdate:vector ETV
vector 387 GossipSubNetwork.nodes[223].connectionManager passiveListUpdate:vector ETV
vector 388 GossipSubNetwork.nodes[199].connectionManager passiveListUpdate:vector ETV
vector 389 GossipSubNetwork.nodes[302].connectionManager passiveListUpdate:vector ETV
vector 390 GossipSubNetwork.nodes[490].connectionManager passiveListUpdate:vector ETV
vector 391 GossipSubNetwork.nodes[275].connectionManager passiveListUpdate:vector ETV
vector 392 GossipSubNetwork.nodes[61].connectionManager passiveListUpdate:vector ETV
vector 393 GossipSubNetwork.nodes[188].connectionManager passiveListUpdate:vector ETV
vector 394 GossipSubNetwork.nodes[168].connectionManager passiveListUpdate:vector ETV
vector 395 GossipSubNetwork.nodes[32].connectionManager passiveListUpdate:vector ETV
vector 396 GossipSubNetwork.nodes[305].connectionManager passiveListUpdate:vector ETV
vector 397 GossipSubNetwork.nodes[198].connectionManager passiveListUpdate:vector ETV
vector 398 GossipSubNetwork.nodes[39].connectionManager passiveListUpdate:vector ETV
vector 399 GossipSubNetwork.nodes[345].connectionManager passiveListUpdate:vector ETV
vector 400 GossipSubNetwork.nodes[232].connectionManager passiveListUpdate:vector ETV
vector 401 GossipSubNetwork.nodes[311].connectionManager passiveListUpdate:vector ETV
vector 402 GossipSubNetwork.nodes[244].connectionManager passiveListUpdate:vector ETV
vector 403 GossipSubNetwork.nodes[9].connectionManager passiveListUpdate:vector ETV
vector 404 GossipSubNetwork.nodes[131].connectionManager passiveListUpdate:vector ETV
vector 405 GossipSubNetwork.nodes[286].connectionManager passiveListUpdate:vector ETV
vector 406 GossipSubNetwork.nodes[78].connectionManager passiveListUpdate:vector ETV
vector 407 GossipSubNetwork.nodes[274].connectionManager passiveListUpdate:vector ETV
vector 408 GossipSubNetwork.nodes[285].connectionManager passiveListUpdate:vector ETV
vector 409 GossipSubNetwork.nodes[464].connectionManager passiveListUpdate:vector ETV
vector 410 GossipSubNetwork.nodes[0].connectionManager passiveListUpdate:vector ETV
vector 411 GossipSubNetwork.nodes[2].connectionManager passiveListUpdate:vector ETV
vector 412 GossipSubNetwork.nodes[398].connectionManager passiveListUpdate:vector ETV
vector 413 GossipSubNetwork.nodes[333].connectionManager passiveListUpdate:vector ETV
vector 414 GossipSubNetwork.nodes[136].connectionManager passiveListUpdate:vector ETV
vector 415 GossipSubNetwork.nodes[308].connectionManager passiveListUpdate:vector ETV
vector 416 GossipSubNetwork.nodes[430].connectionManager passiveListUpdate:vector ETV
vector 417 GossipSubNetwork.nodes[359].connectionManager passiveListUpdate:vector ETV
vector 418 GossipSubNetwork.nodes[491].connectionManager passiveListUpdate:vector ETV
vector 419 GossipSubNetwork.nodes[234].connectionManager passiveListUpdate:vector ETV
vector 420 GossipSubNetwork.nodes[70].connectionManager passiveListUpdate:vector ETV
vector 421 GossipSubNetwork.nodes[342].connectionManager passiveListUpdate:vector ETV
vector 422 GossipSubNetwork.nodes[362].connectionManager passiveListUpdate:vector ETV
vector 423 GossipSubNetwork.nodes[454].connectionManager passiveListUpdate:vector ETV
vector 424 GossipSubNetwork.nodes[310].connectionManager passiveListUpdate:vector ETV
vector 425 GossipSubNetwork.nodes[452].connectionManager passiveListUpdate:vector ETV
vector 426 GossipSubNetwork.nodes[346].connectionManager passiveListUpdate:vector ETV
vector 427 GossipSubNetwork.nodes[69].connectionManager passiveListUpdate:vector ETV
vector 428 GossipSubNetwork.nodes[36].connectionManager passiveListUpdate:vector ETV
vector 429 GossipSubNetwork.nodes[382].connectionManager passiveListUpdate:vector ETV
vector 430 GossipSubNetwork.nodes[226].connectionManager passiveListUpdate:vector ETV
vector 431 GossipSubNetwork.nodes[418].connectionManager passiveListUpdate:vector ETV
vector 432 GossipSubNetwork.nodes[340].connectionManager passiveListUpdate:vector ETV
vector 433 GossipSubNetwork.nodes[249].connectionManager passiveListUpdate:vector ETV
vector 434 GossipSubNetwork.nodes[334].connectionManager passiveListUpdate:vector ETV
vector 435 GossipSubNetwork.nodes[414].connectionManager passiveListUpdate:vector ETV
vector 436 GossipSubNetwork.nodes[348].connectionManager passiveListUpdate:vector ETV
vector 437 GossipSubNetwork.nodes[193].connectionManager passiveListUpdate:vector ETV
vector 438 GossipSubNetwork.nodes[496].connectionManager passiveListUpdate:vector ETV
vector 439 GossipSubNetwork.nodes[20].connectionManager passiveListUpdate:vector ETV
vector 440 GossipSubNetwork.nodes[93].connectionManager passiveListUpdate:vector ETV
vector 441 GossipSubNetwork.nodes[126].connectionManager passiveListUpdate:vector ETV
vector 442 GossipSubNetwork.nodes[397].connectionManager passiveListUpdate:vector ETV
vector 443 GossipSubNetwork.nodes[477].connectionManager passiveListUpdate:vector ETV
vector 444 GossipSubNetwork.nodes[262].connectionManager passiveListUpdate:vector ETV
vector 445 GossipSubNetwork.nodes[189].connectionManager passiveListUpdate:vector ETV
vector 446 GossipSubNetwork.nodes[29].connectionManager passiveListUpdate:vector ETV
vector 447 GossipSubNetwork.nodes[498].connectionManager passiveListUpdate:vector ETV
vector 448 GossipSubNetwork.nodes[203].connectionManager passiveListUpdate:vector ETV
vector 449 GossipSubNetwork.nodes[80].connectionManager passiveListUpdate:vector ETV
vector 450 GossipSubNetwork.nodes[429].connectionManager passiveListUpdate:vector ETV
vector 451 GossipSubNetwork.nodes[15].connectionManager passiveListUpdate:vector ETV
vector 452 GossipSubNetwork.nodes[159].connectionManager passiveListUpdate:vector ETV
vector 453 GossipSubNetwork.nodes[102].connectionManager passiveListUpdate:vector ETV
vector 454 GossipSubNetwork.nodes[51].connectionManager passiveListUpdate:vector ETV
vector 455 GossipSubNetwork.nodes[263].connectionManager passiveListUpdate:vector ETV
vector 456 GossipSubNetwork.nodes[162].connectionManager passiveListUpdate:vector ETV
vector 457 GossipSubNetwork.nodes[138].connectionManager passiveListUpdate:vector ETV
vector 458 GossipSubNetwork.nodes[195].connectionManager passiveListUpdate:vector ETV
vector 459 GossipSubNetwork.nodes[447].connectionManager passiveListUpdate:vector ETV
vector 460 GossipSubNetwork.nodes[85].connectionManager passiveListUpdate:vector ETV
vector 461 GossipSubNetwork.nodes[40].connectionManager passiveListUpdate:vector ETV
vector 462 GossipSubNetwork.nodes[1].connectionManager passiveListUpdate:vector ETV
vector 463 GossipSubNetwork.nodes[175].connectionManager passiveListUpdate:vector ETV
vector 464 GossipSubNetwork.nodes[373].connectionManager passiveListUpdate:vector ETV
vector 465 GossipSubNetwork.nodes[376].connectionManager passiveListUpdate:vector ETV
vector 466 GossipSubNetwork.nodes[239].connectionManager passiveListUpdate:vector ETV
vector 467 GossipSubNetwork.nodes[386].connectionManager passiveListUpdate:vector ETV
vector 468 GossipSubNetwork.nodes[104].connectionManager passiveListUpdate:vector ETV
vector 469 GossipSubNetwork.nodes[96].connectionManager passiveListUpdate:vector ETV
vector 470 GossipSubNetwork.nodes[300].connectionManager passiveListUpdate:vector ETV
vector 471 GossipSubNetwork.nodes[281].connectionManager passiveListUpdate:vector ETV
vector 472 GossipSubNetwork.nodes[461].connectionManager passiveListUpdate:vector ETV
vector 473 GossipSubNetwork.nodes[400].connectionManager passiveListUpdate:vector ETV
vector 474 GossipSubNetwork.nodes[241].connectionManager passiveListUpdate:vector ETV
vector 475 GossipSubNetwork.nodes[163].connectionManager passiveListUpdate:vector ETV
vector 476 GossipSubNetwork.nodes[25].connectionManager passiveListUpdate:vector ETV
vector 477 GossipSubNetwork.nodes[444].connectionManager passiveListUpdate:vector ETV
vector 478 GossipSubNetwork.nodes[208].connectionManager passiveListUpdate:vector ETV
vector 479 GossipSubNetwork.nodes[350].connectionManager passiveListUpdate:vector ETV
vector 480 GossipSubNetwork.nodes[24].connectionManager passiveListUpdate:vector ETV
vector 481 GossipSubNetwork.nodes[427].connectionManager passiveListUpdate:vector ETV
vector 482 GossipSubNetwork.nodes[481].connectionManager passiveListUpdate:vector ETV
vector 483 GossipSubNetwork.nodes[107].connectionManager passiveListUpdate:vector ETV
vector 484 GossipSubNetwork.nodes[251].connectionManager passiveListUpdate:vector ETV
vector 485 GossipSubNetwork.nodes[21].connectionManager passiveListUpdate:vector ETV
vector 486 GossipSubNetwork.nodes[474].connectionManager passiveListUpdate:vector ETV
vector 487 GossipSubNetwork.nodes[434].connectionManager passiveListUpdate:vector ETV
vector 488 GossipSubNetwork.nodes[445].connectionManager passiveListUpdate:vector ETV
vector 489 GossipSubNetwork.nodes[280].connectionManager passiveListUpdate:vector ETV
vector 490 GossipSubNetwork.nodes[495].connectionManager passiveListUpdate:vector ETV
vector 491 GossipSubNetwork.nodes[453].connectionManager passiveListUpdate:vector ETV
vector 492 GossipSubNetwork.nodes[229].connectionManager passiveListUpdate:vector ETV
vector 493 GossipSubNetwork.nodes[200].connectionManager passiveListUpdate:vector ETV
vector 494 GossipSubNetwork.nodes[436].connectionManager passiveListUpdate:vector ETV
vector 495 GossipSubNetwork.nodes[456].connectionManager passiveListUpdate:vector ETV
vector 496 GossipSubNetwork.nodes[217].connectionManager passiveListUpdate:vector ETV
vector 497 GossipSubNetwork.nodes[364].connectionManager passiveListUpdate:vector ETV
vector 498 GossipSubNetwork.nodes[466].connectionManager passiveListUpdate:vector ETV
vector 499 GossipSubNetwork.nodes[366].connectionManager passiveListUpdate:vector ETV
vector 500 GossipSubNetwork.nodes[38].connectionManager activeListUpdate:vector ETV
vector 501 GossipSubNetwork.nodes[246].connectionManager activeListUpdate:vector ETV
vector 502 GossipSubNetwork.nodes[50].connectionManager activeListUpdate:vector ETV
vector 503 GossipSubNetwork.nodes[166].connectionManager activeListUpdate:vector ETV
vector 504 GossipSubNetwork.nodes[121].connectionManager activeListUpdate:vector ETV
vector 505 GossipSubNetwork.nodes[149].connectionManager activeListUpdate:vector ETV
vector 506 GossipSubNetwork.nodes[344].connectionManager activeListUpdate:vector ETV
vector 507 GossipSubNetwork.nodes[478].connectionManager activeListUpdate:vector ETV
vector 508 GossipSubNetwork.nodes[44].connectionManager activeListUpdate:vector ETV
vector 509 GossipSubNetwork.nodes[213].connectionManager activeListUpdate:vector ETV
vector 510 GossipSubNetwork.nodes[142].connectionManager activeListUpdate:vector ETV
vector 511 GossipSubNetwork.nodes[448].connectionManager activeListUpdate:vector ETV
vector 512 GossipSubNetwork.nodes[28].connectionManager activeListUpdate:vector ETV
vector 513 GossipSubNetwork.nodes[393].connectionManager activeListUpdate:vector ETV
vector 514 GossipSubNetwork.nodes[332].connectionManager activeListUpdate:vector ETV
vector 515 GossipSubNetwork.nodes[153].connectionManager activeListUpdate:vector ETV
vector 516 GossipSubNetwork.nodes[220].connectionManager activeListUpdate:vector ETV
vector 517 GossipSubNetwork.nodes[443].connectionManager activeListUpdate:vector ETV
vector 518 GossipSubNetwork.nodes[106].connectionManager activeListUpdate:vector ETV
vector 519 GossipSubNetwork.nodes[283].connectionManager activeListUpdate:vector ETV
vector 520 GossipSubNetwork.nodes[114].connectionManager activeListUpdate:vector ETV
vector 521 GossipSubNetwork.nodes[119].connectionManager activeListUpdate:vector ETV
vector 522 GossipSubNetwork.nodes[2].connectionManager activeListUpdate:vector ETV
vector 523 GossipSubNetwork.nodes[181].connectionManager activeListUpdate:vector ETV
vector 524 GossipSubNetwork.nodes[27].connectionManager activeListUpdate:vector ETV
vector 525 GossipSubNetwork.nodes[297].connectionManager activeListUpdate:vector ETV
vector 526 GossipSubNetwork.nodes[335].connectionManager activeListUpdate:vector ETV
vector 527 GossipSubNetwork.nodes[475].connectionManager activeListUpdate:vector ETV
vector 528 GossipSubNetwork.nodes[374].connectionManager activeListUpdate:vector ETV
vector 529 GossipSubNetwork.nodes[123].connectionManager activeListUpdate:vector ETV
vector 530 GossipSubNetwork.nodes[326].connectionManager activeListUpdate:vector ETV
vector 531 GossipSubNetwork.nodes[184].connectionManager activeListUpdate:vector ETV
vector 532 GossipSubNetwork.nodes[499].connectionManager activeListUpdate:vector ETV
vector 533 GossipSubNetwork.nodes[128].connectionManager activeListUpdate:vector ETV
vector 534 GossipSubNetwork.nodes[150].connectionManager activeListUpdate:vector ETV
vector 535 GossipSubNetwork.nodes[129].connectionManager activeListUpdate:vector ETV
vector 536 GossipSubNetwork.nodes[243].connectionManager activeListUpdate:vector ETV
vector 537 GossipSubNetwork.nodes[4].connectionManager activeListUpdate:vector ETV
vector 538 GossipSubNetwork.nodes[177].connectionManager activeListUpdate:vector ETV
vector 539 GossipSubNetwork.nodes[154].connectionManager activeListUpdate:vector ETV
vector 540 GossipSubNetwork.nodes[22].connectionManager activeListUpdate:vector ETV
vector 541 GossipSubNetwork.nodes[48].connectionManager activeListUpdate:vector ETV
vector 542 GossipSubNetwork.nodes[233].connectionManager activeListUpdate:vector ETV
vector 543 GossipSubNetwork.nodes[120].connectionManager activeListUpdate:vector ETV
vector 544 GossipSubNetwork.nodes[183].connectionManager activeListUpdate:vector ETV
vector 545 GossipSubNetwork.nodes[494].connectionManager activeListUpdate:vector ETV
vector 546 GossipSubNetwork.nodes[269].connectionManager activeListUpdate:vector ETV
vector 547 GossipSubNetwork.nodes[277].connectionManager activeListUpdate:vector ETV
vector 548 GossipSubNetwork.nodes[196].connectionManager activeListUpdate:vector ETV
vector 549 GossipSubNetwork.nodes[271].connectionManager activeListUpdate:vector ETV
vector 550 GossipSubNetwork.nodes[309].connectionManager activeListUpdate:vector ETV
vector 551 GossipSubNetwork.nodes[35].connectionManager activeListUpdate:vector ETV
vector 552 GossipSubNetwork.nodes[299].connectionManager activeListUpdate:vector ETV
vector 553 GossipSubNetwork.nodes[247].connectionManager activeListUpdate:vector ETV
vector 554 GossipSubNetwork.nodes[276].connectionManager activeListUpdate:vector ETV
vector 555 GossipSubNetwork.nodes[384].connectionManager activeListUpdate:vector ETV
vector 556 GossipSubNetwork.nodes[425].connectionManager activeListUpdate:vector ETV
vector 557 GossipSubNetwork.nodes[312].connectionManager activeListUpdate:vector ETV
vector 558 GossipSubNetwork.nodes[472].connectionManager activeListUpdate:vector ETV
vector 559 GossipSubNetwork.nodes[383].connectionManager activeListUpdate:vector ETV
vector 560 GossipSubNetwork.nodes[216].connectionManager activeListUpdate:vector ETV
vector 561 GossipSubNetwork.nodes[353].connectionManager activeListUpdate:vector ETV
vector 562 GossipSubNetwork.nodes[219].connectionManager activeListUpdate:vector ETV
vector 563 GossipSubNetwork.nodes[5].connectionManager activeListUpdate:vector ETV
vector 564 GossipSubNetwork.nodes[141].connectionManager activeListUpdate:vector ETV
vector 565 GossipSubNetwork.nodes[361].connectionManager activeListUpdate:vector ETV
vector 566 GossipSubNetwork.nodes[215].connectionManager activeListUpdate:vector ETV
vector 567 GossipSubNetwork.nodes[212].connectionManager activeListUpdate:vector ETV
vector 568 GossipSubNetwork.nodes[101].connectionManager activeListUpdate:vector ETV
vector 569 GossipSubNetwork.nodes[122].connectionManager activeListUpdate:vector ETV
vector 570 GossipSubNetwork.nodes[408].connectionManager activeListUpdate:vector ETV
vector 571 GossipSubNetwork.nodes[160].connectionManager activeListUpdate:vector ETV
vector 572 GossipSubNetwork.nodes[339].connectionManager activeListUpdate:vector ETV
vector 573 GossipSubNetwork.nodes[240].connectionManager activeListUpdate:vector ETV
vector 574 GossipSubNetwork.nodes[284].connectionManager activeListUpdate:vector ETV
vector 575 GossipSubNetwork.nodes[313].connectionManager activeListUpdate:vector ETV
vector 576 GossipSubNetwork.nodes[322].connectionManager activeListUpdate:vector ETV
vector 577 GossipSubNetwork.nodes[371].connectionManager activeListUpdate:vector ETV
vector 578 GossipSubNetwork.nodes[433].connectionManager activeListUpdate:vector ETV
vector 579 GossipSubNetwork.nodes[14].connectionManager activeListUpdate:vector ETV
vector 580 GossipSubNetwork.nodes[278].connectionManager activeListUpdate:vector ETV
vector 581 GossipSubNetwork.nodes[53].connectionManager activeListUpdate:vector ETV
vector 582 GossipSubNetwork.nodes[320].connectionManager activeListUpdate:vector ETV
vector 583 GossipSubNetwork.nodes[352].connectionManager activeListUpdate:vector ETV
vector 584 GossipSubNetwork.nodes[6].connectionManager activeListUpdate:vector ETV
vector 585 GossipSubNetwork.nodes[65].connectionManager activeListUpdate:vector ETV
vector 586 GossipSubNetwork.nodes[179].connectionManager activeListUpdate:vector ETV
vector 587 GossipSubNetwork.nodes[71].connectionManager activeListUpdate:vector ETV
vector 588 GossipSubNetwork.nodes[265].connectionManager activeListUpdate:vector ETV
vector 589 GossipSubNetwork.nodes[190].connectionManager activeListUpdate:vector ETV
vector 590 GossipSubNetwork.nodes[492].connectionManager activeListUpdate:vector ETV
vector 591 GossipSubNetwork.nodes[465].connectionManager activeListUpdate:vector ETV
vector 592 GossipSubNetwork.nodes[369].connectionManager activeListUpdate:vector ETV
vector 593 GossipSubNetwork.nodes[402].connectionManager activeListUpdate:vector ETV
vector 594 GossipSubNetwork.nodes[273].connectionManager activeListUpdate:vector ETV
vector 595 GossipSubNetwork.nodes[441].connectionManager activeListUpdate:vector ETV
vector 596 GossipSubNetwork.nodes[55].connectionManager activeListUpdate:vector ETV
vector 597 GossipSubNetwork.nodes[349].connectionManager activeListUpdate:vector ETV
vector 598 GossipSubNetwork.nodes[268].connectionManager activeListUpdate:vector ETV
vector 599 GossipSubNetwork.nodes[486].connectionManager activeListUpdate:vector ETV
vector 600 GossipSubNetwork.nodes[224].connectionManager activeListUpdate:vector ETV
vector 601 GossipSubNetwork.nodes[84].connectionManager activeListUpdate:vector ETV
vector 602 GossipSubNetwork.nodes[206].connectionManager activeListUpdate:vector ETV
vector 603 GossipSubNetwork.nodes[252].connectionManager activeListUpdate:vector ETV
vector 604 GossipSubNetwork.nodes[60].connectionManager activeListUpdate:vector ETV
vector 605 GossipSubNetwork.nodes[292].connectionManager activeListUpdate:vector ETV
vector 606 GossipSubNetwork.nodes[419].connectionManager activeListUpdate:vector ETV
vector 607 GossipSubNetwork.nodes[110].connectionManager activeListUpdate:vector ETV
vector 608 GossipSubNetwork.nodes[442].connectionManager activeListUpdate:vector ETV
vector 609 GossipSubNetwork.nodes[12].connectionManager activeListUpdate:vector ETV
vector 610 GossipSubNetwork.nodes[423].connectionManager activeListUpdate:vector ETV
vector 611 GossipSubNetwork.nodes[205].connectionManager activeListUpdate:vector ETV
vector 612 GossipSubNetwork.nodes[49].connectionManager activeListUpdate:vector ETV
vector 613 GossipSubNetwork.nodes[288].connectionManager activeListUpdate:vector ETV
vector 614 GossipSubNetwork.nodes[387].connectionManager activeListUpdate:vector ETV
vector 615 GossipSubNetwork.nodes[245].connectionManager activeListUpdate:vector ETV
vector 616 GossipSubNetwork.nodes[459].connectionManager activeListUpdate:vector ETV
vector 617 GossipSubNetwork.nodes[165].connectionManager activeListUpdate:vector ETV
vector 618 GossipSubNetwork.nodes[314].connectionManager activeListUpdate:vector ETV
vector 619 GossipSubNetwork.nodes[411].connectionManager activeListUpdate:vector ETV
vector 620 GossipSubNetwork.nodes[421].connectionManager activeListUpdate:vector ETV
vector 621 GossipSubNetwork.nodes[394].connectionManager activeListUpdate:vector ETV
vector 622 GossipSubNetwork.nodes[238].connectionManager activeListUpdate:vector ETV
vector 623 GossipSubNetwork.nodes[304].connectionManager activeListUpdate:vector ETV
vector 624 GossipSubNetwork.nodes[204].connectionManager activeListUpdate:vector ETV
vector 625 GossipSubNetwork.nodes[437].connectionManager activeListUpdate:vector ETV
vector 626 GossipSubNetwork.nodes[30].connectionManager activeListUpdate:vector ETV
vector 627 GossipSubNetwork.nodes[325].connectionManager activeListUpdate:vector ETV
vector 628 GossipSubNetwork.nodes[89].connectionManager activeListUpdate:vector ETV
vector 629 GossipSubNetwork.nodes[161].connectionManager activeListUpdate:vector ETV
vector 630 GossipSubNetwork.nodes[422].connectionManager activeListUpdate:vector ETV
vector 631 GossipSubNetwork.nodes[328].connectionManager activeListUpdate:vector ETV
vector 632 GossipSubNetwork.nodes[317].connectionManager activeListUpdate:vector ETV
vector 633 GossipSubNetwork.nodes[336].connectionManager activeListUpdate:vector ETV
vector 634 GossipSubNetwork.nodes[172].connectionManager activeListUpdate:vector ETV
vector 635 GossipSubNetwork.nodes[42].connectionManager activeListUpdate:vector ETV
vector 636 GossipSubNetwork.nodes[406].connectionManager activeListUpdate:vector ETV
vector 637 GossipSubNetwork.nodes[33].connectionManager activeListUpdate:vector ETV
vector 638 GossipSubNetwork.nodes[10].connectionManager activeListUpdate:vector ETV
vector 639 GossipSubNetwork.nodes[372].connectionManager activeListUpdate:vector ETV
vector 640 GossipSubNetwork.nodes[473].connectionManager activeListUpdate:vector ETV
vector 641 GossipSubNetwork.nodes[201].connectionManager activeListUpdate:vector ETV
vector 642 GossipSubNetwork.nodes[399].connectionManager activeListUpdate:vector ETV
vector 643 GossipSubNetwork.nodes[174].connectionManager activeListUpdate:vector ETV
vector 644 GossipSubNetwork.nodes[125].connectionManager activeListUpdate:vector ETV
vector 645 GossipSubNetwork.nodes[449].connectionManager activeListUpdate:vector ETV
vector 646 GossipSubNetwork.nodes[98].connectionManager activeListUpdate:vector ETV
vector 647 GossipSubNetwork.nodes[428].connectionManager activeListUpdate:vector ETV
vector 648 GossipSubNetwork.nodes[392].connectionManager activeListUpdate:vector ETV
vector 649 GossipSubNetwork.nodes[94].connectionManager activeListUpdate:vector ETV
vector 650 GossipSubNetwork.nodes[409].connectionManager activeListUpdate:vector ETV
vector 651 GossipSubNetwork.nodes[191].connectionManager activeListUpdate:vector ETV
vector 652 GossipSubNetwork.nodes[92].connectionManager activeListUpdate:vector ETV
vector 653 GossipSubNetwork.nodes[267].connectionManager activeListUpdate:vector ETV
vector 654 GossipSubNetwork.nodes[137].connectionManager activeListUpdate:vector ETV
vector 655 GossipSubNetwork.nodes[64].connectionManager activeListUpdate:vector ETV
vector 656 GossipSubNetwork.nodes[75].connectionManager activeListUpdate:vector ETV
vector 657 GossipSubNetwork.nodes[306].connectionManager activeListUpdate:vector ETV
vector 658 GossipSubNetwork.nodes[103].connectionManager activeListUpdate:vector ETV
vector 659 GossipSubNetwork.nodes[214].connectionManager activeListUpdate:vector ETV
vector 660 GossipSubNetwork.nodes[178].connectionManager activeListUpdate:vector ETV
vector 661 GossipSubNetwork.nodes[133].connectionManager activeListUpdate:vector ETV
vector 662 GossipSubNetwork.nodes[221].connectionManager activeListUpdate:vector ETV
vector 663 GossipSubNetwork.nodes[404].connectionManager activeListUpdate:vector ETV
vector 664 GossipSubNetwork.nodes[295].connectionManager activeListUpdate:vector ETV
vector 665 GossipSubNetwork.nodes[146].connectionManager activeListUpdate:vector ETV
vector 666 GossipSubNetwork.nodes[439].connectionManager activeListUpdate:vector ETV
vector 667 GossipSubNetwork.nodes[170].connectionManager activeListUpdate:vector ETV
vector 668 GossipSubNetwork.nodes[250].connectionManager activeListUpdate:vector ETV
vector 669 GossipSubNetwork.nodes[16].connectionManager activeListUpdate:vector ETV
vector 670 GossipSubNetwork.nodes[420].connectionManager activeListUpdate:vector ETV
vector 671 GossipSubNetwork.nodes[111].connectionManager activeListUpdate:vector ETV
vector 672 GossipSubNetwork.nodes[396].connectionManager activeListUpdate:vector ETV
vector 673 GossipSubNetwork.nodes[458].connectionManager activeListUpdate:vector ETV
vector 674 GossipSubNetwork.nodes[173].connectionManager activeListUpdate:vector ETV
vector 675 GossipSubNetwork.nodes[145].connectionManager activeListUpdate:vector ETV
vector 676 GossipSubNetwork.nodes[90].connectionManager activeListUpdate:vector ETV
vector 677 GossipSubNetwork.nodes[487].connectionManager activeListUpdate:vector ETV
vector 678 GossipSubNetwork.nodes[100].connectionManager activeListUpdate:vector ETV
vector 679 GossipSubNetwork.nodes[385].connectionManager activeListUpdate:vector ETV
vector 680 GossipSubNetwork.nodes[463].connectionManager activeListUpdate:vector ETV
vector 681 GossipSubNetwork.nodes[26].connectionManager activeListUpdate:vector ETV
vector 682 GossipSubNetwork.nodes[164].connectionManager activeListUpdate:vector ETV
vector 683 GossipSubNetwork.nodes[77].connectionManager activeListUpdate:vector ETV
vector 684 GossipSubNetwork.nodes[318].connectionManager activeListUpdate:vector ETV
vector 685 GossipSubNetwork.nodes[410].connectionManager activeListUpdate:vector ETV
vector 686 GossipSubNetwork.nodes[388].connectionManager activeListUpdate:vector ETV
vector 687 GossipSubNetwork.nodes[390].connectionManager activeListUpdate:vector ETV
vector 688 GossipSubNetwork.nodes[135].connectionManager activeListUpdate:vector ETV
vector 689 GossipSubNetwork.nodes[144].connectionManager activeListUpdate:vector ETV
vector 690 GossipSubNetwork.nodes[407].connectionManager activeListUpdate:vector ETV
vector 691 GossipSubNetwork.nodes[197].connectionManager activeListUpdate:vector ETV
vector 692 GossipSubNetwork.nodes[236].connectionManager activeListUpdate:vector ETV
vector 693 GossipSubNetwork.nodes[19].connectionManager activeListUpdate:vector ETV
vector 694 GossipSubNetwork.nodes[488].connectionManager activeListUpdate:vector ETV
vector 695 GossipSubNetwork.nodes[258].connectionManager activeListUpdate:vector ETV
vector 696 GossipSubNetwork.nodes[426].connectionManager activeListUpdate:vector ETV
vector 697 GossipSubNetwork.nodes[316].connectionManager activeListUpdate:vector ETV
vector 698 GossipSubNetwork.nodes[323].connectionManager activeListUpdate:vector ETV
vector 699 GossipSubNetwork.nodes[462].connectionManager activeListUpdate:vector ETV
vector 700 GossipSubNetwork.nodes[180].connectionManager activeListUpdate:vector ETV
vector 701 GossipSubNetwork.nodes[95].connectionManager activeListUpdate:vector ETV
vector 702 GossipSubNetwork.nodes[460].connectionManager activeListUpdate:vector ETV
vector 703 GossipSubNetwork.nodes[254].connectionManager activeListUpdate:vector ETV
vector 704 GossipSubNetwork.nodes[222].connectionManager activeListUpdate:vector ETV
vector 705 GossipSubNetwork.nodes[99].connectionManager activeListUpdate:vector ETV
vector 706 GossipSubNetwork.nodes[303].connectionManager activeListUpdate:vector ETV
vector 707 GossipSubNetwork.nodes[450].connectionManager activeListUpdate:vector ETV
vector 708 GossipSubNetwork.nodes[379].connectionManager activeListUpdate:vector ETV
vector 709 GossipSubNetwork.nodes[479].connectionManager activeListUpdate:vector ETV
vector 710 GossipSubNetwork.nodes[72].connectionManager activeListUpdate:vector ETV
vector 711 GossipSubNetwork.nodes[315].connectionManager activeListUpdate:vector ETV
vector 712 GossipSubNetwork.nodes[147].connectionManager activeListUpdate:vector ETV
vector 713 GossipSubNetwork.nodes[289].connectionManager activeListUpdate:vector ETV
vector 714 GossipSubNetwork.nodes[237].connectionManager activeListUpdate:vector ETV
vector 715 GossipSubNetwork.nodes[143].connectionManager activeListUpdate:vector ETV
vector 716 GossipSubNetwork.nodes[152].connectionManager activeListUpdate:vector ETV
vector 717 GossipSubNetwork.nodes[307].connectionManager activeListUpdate:vector ETV
vector 718 GossipSubNetwork.nodes[58].connectionManager activeListUpdate:vector ETV
vector 719 GossipSubNetwork.nodes[18].connectionManager activeListUpdate:vector ETV
vector 720 GossipSubNetwork.nodes[66].connectionManager activeListUpdate:vector ETV
vector 721 GossipSubNetwork.nodes[79].connectionManager activeListUpdate:vector ETV
vector 722 GossipSubNetwork.nodes[97].connectionManager activeListUpdate:vector ETV
vector 723 GossipSubNetwork.nodes[57].connectionManager activeListUpdate:vector ETV
vector 724 GossipSubNetwork.nodes[438].connectionManager activeListUpdate:vector ETV
vector 725 GossipSubNetwork.nodes[403].connectionManager activeListUpdate:vector ETV
vector 726 GossipSubNetwork.nodes[260].connectionManager activeListUpdate:vector ETV
vector 727 GossipSubNetwork.nodes[279].connectionManager activeListUpdate:vector ETV
vector 728 GossipSubNetwork.nodes[291].connectionManager activeListUpdate:vector ETV
vector 729 GossipSubNetwork.nodes[365].connectionManager activeListUpdate:vector ETV
vector 730 GossipSubNetwork.nodes[186].connectionManager activeListUpdate:vector ETV
vector 731 GossipSubNetwork.nodes[330].connectionManager activeListUpdate:vector ETV
vector 732 GossipSubNetwork.nodes[228].connectionManager activeListUpdate:vector ETV
vector 733 GossipSubNetwork.nodes[381].connectionManager activeListUpdate:vector ETV
vector 734 GossipSubNetwork.nodes[358].connectionManager activeListUpdate:vector ETV
vector 735 GossipSubNetwork.nodes[230].connectionManager activeListUpdate:vector ETV
vector 736 GossipSubNetwork.nodes[155].connectionManager activeListUpdate:vector ETV
vector 737 GossipSubNetwork.nodes[290].connectionManager activeListUpdate:vector ETV
vector 738 GossipSubNetwork.nodes[270].connectionManager activeListUpdate:vector ETV
vector 739 GossipSubNetwork.nodes[264].connectionManager activeListUpdate:vector ETV
vector 740 GossipSubNetwork.nodes[63].connectionManager activeListUpdate:vector ETV
vector 741 GossipSubNetwork.nodes[389].connectionManager activeListUpdate:vector ETV
vector 742 GossipSubNetwork.nodes[294].connectionManager activeListUpdate:vector ETV
vector 743 GossipSubNetwork.nodes[132].connectionManager activeListUpdate:vector ETV
vector 744 GossipSubNetwork.nodes[256].connectionManager activeListUpdate:vector ETV
vector 745 GossipSubNetwork.nodes[0].connectionManager activeListUpdate:vector ETV
vector 746 GossipSubNetwork.nodes[45].connectionManager activeListUpdate:vector ETV
vector 747 GossipSubNetwork.nodes[363].connectionManager activeListUpdate:vector ETV
vector 748 GossipSubNetwork.nodes[74].connectionManager activeListUpdate:vector ETV
vector 749 GossipSubNetwork.nodes[235].connectionManager activeListUpdate:vector ETV
vector 750 GossipSubNetwork.nodes[207].connectionManager activeListUpdate:vector ETV
vector 751 GossipSubNetwork.nodes[231].connectionManager activeListUpdate:vector ETV
vector 752 GossipSubNetwork.nodes[43].connectionManager activeListUpdate:vector ETV
vector 753 GossipSubNetwork.nodes[347].connectionManager activeListUpdate:vector ETV
vector 754 GossipSubNetwork.nodes[117].connectionManager activeListUpdate:vector ETV
vector 755 GossipSubNetwork.nodes[7].connectionManager activeListUpdate:vector ETV
vector 756 GossipSubNetwork.nodes[261].connectionManager activeListUpdate:vector ETV
vector 757 GossipSubNetwork.nodes[185].connectionManager activeListUpdate:vector ETV
vector 758 GossipSubNetwork.nodes[337].connectionManager activeListUpdate:vector ETV
vector 759 GossipSubNetwork.nodes[17].connectionManager activeListUpdate:vector ETV
vector 760 GossipSubNetwork.nodes[182].connectionManager activeListUpdate:vector ETV
vector 761 GossipSubNetwork.nodes[483].connectionManager activeListUpdate:vector ETV
vector 762 GossipSubNetwork.nodes[380].connectionManager activeListUpdate:vector ETV
vector 763 GossipSubNetwork.nodes[331].connectionManager activeListUpdate:vector ETV
vector 764 GossipSubNetwork.nodes[59].connectionManager activeListUpdate:vector ETV
vector 765 GossipSubNetwork.nodes[202].connectionManager activeListUpdate:vector ETV
vector 766 GossipSubNetwork.nodes[116].connectionManager activeListUpdate:vector ETV
vector 767 GossipSubNetwork.nodes[210].connectionManager activeListUpdate:vector ETV
vector 768 GossipSubNetwork.nodes[301].connectionManager activeListUpdate:vector ETV
vector 769 GossipSubNetwork.nodes[351].connectionManager activeListUpdate:vector ETV
vector 770 GossipSubNetwork.nodes[457].connectionManager activeListUpdate:vector ETV
vector 771 GossipSubNetwork.nodes[46].connectionManager activeListUpdate:vector ETV
vector 772 GossipSubNetwork.nodes[34].connectionManager activeListUpdate:vector ETV
vector 773 GossipSubNetwork.nodes[140].connectionManager activeListUpdate:vector ETV
vector 774 GossipSubNetwork.nodes[157].connectionManager activeListUpdate:vector ETV
vector 775 GossipSubNetwork.nodes[469].connectionManager activeListUpdate:vector ETV
vector 776 GossipSubNetwork.nodes[105].connectionManager activeListUpdate:vector ETV
vector 777 GossipSubNetwork.nodes[467].connectionManager activeListUpdate:vector ETV
vector 778 GossipSubNetwork.nodes[319].connectionManager activeListUpdate:vector ETV
vector 779 GossipSubNetwork.nodes[391].connectionManager activeListUpdate:vector ETV
vector 780 GossipSubNetwork.nodes[248].connectionManager activeListUpdate:vector ETV
vector 781 GossipSubNetwork.nodes[255].connectionManager activeListUpdate:vector ETV
vector 782 GossipSubNetwork.nodes[257].connectionManager activeListUpdate:vector ETV
vector 783 GossipSubNetwork.nodes[455].connectionManager activeListUpdate:vector ETV
vector 784 GossipSubNetwork.nodes[395].connectionManager activeListUpdate:vector ETV
vector 785 GossipSubNetwork.nodes[405].connectionManager activeListUpdate:vector ETV
vector 786 GossipSubNetwork.nodes[68].connectionManager activeListUpdate:vector ETV
vector 787 GossipSubNetwork.nodes[431].connectionManager activeListUpdate:vector ETV
vector 788 GossipSubNetwork.nodes[211].connectionManager activeListUpdate:vector ETV
vector 789 GossipSubNetwork.nodes[87].connectionManager activeListUpdate:vector ETV
vector 790 GossipSubNetwork.nodes[489].connectionManager activeListUpdate:vector ETV
vector 791 GossipSubNetwork.nodes[31].connectionManager activeListUpdate:vector ETV
vector 792 GossipSubNetwork.nodes[169].connectionManager activeListUpdate:vector ETV
vector 793 GossipSubNetwork.nodes[109].connectionManager activeListUpdate:vector ETV
vector 794 GossipSubNetwork.nodes[424].connectionManager activeListUpdate:vector ETV
vector 795 GossipSubNetwork.nodes[287].connectionManager activeListUpdate:vector ETV
vector 796 GossipSubNetwork.nodes[416].connectionManager activeListUpdate:vector ETV
vector 797 GossipSubNetwork.nodes[482].connectionManager activeListUpdate:vector ETV
vector 798 GossipSubNetwork.nodes[54].connectionManager activeListUpdate:vector ETV
vector 799 GossipSubNetwork.nodes[296].connectionManager activeListUpdate:vector ETV
vector 800 GossipSubNetwork.nodes[41].connectionManager activeListUpdate:vector ETV
vector 801 GossipSubNetwork.nodes[127].connectionManager activeListUpdate:vector ETV
vector 802 GossipSubNetwork.nodes[52].connectionManager activeListUpdate:vector ETV
vector 803 GossipSubNetwork.nodes[375].connectionManager activeListUpdate:vector ETV
vector 804 GossipSubNetwork.nodes[83].connectionManager activeListUpdate:vector ETV
vector 805 GossipSubNetwork.nodes[468].connectionManager activeListUpdate:vector ETV
vector 806 GossipSubNetwork.nodes[156].connectionManager activeListUpdate:vector ETV
vector 807 GossipSubNetwork.nodes[227].connectionManager activeListUpdate:vector ETV
vector 808 GossipSubNetwork.nodes[130].connectionManager activeListUpdate:vector ETV
vector 809 GossipSubNetwork.nodes[485].connectionManager activeListUpdate:vector ETV
vector 810 GossipSubNetwork.nodes[355].connectionManager activeListUpdate:vector ETV
vector 811 GossipSubNetwork.nodes[218].connectionManager activeListUpdate:vector ETV
vector 812 GossipSubNetwork.nodes[357].connectionManager activeListUpdate:vector ETV
vector 813 GossipSubNetwork.nodes[158].connectionManager activeListUpdate:vector ETV
vector 814 GossipSubNetwork.nodes[13].connectionManager activeListUpdate:vector ETV
vector 815 GossipSubNetwork.nodes[412].connectionManager activeListUpdate:vector ETV
vector 816 GossipSubNetwork.nodes[134].connectionManager activeListUpdate:vector ETV
vector 817 GossipSubNetwork.nodes[113].connectionManager activeListUpdate:vector ETV
vector 818 GossipSubNetwork.nodes[298].connectionManager activeListUpdate:vector ETV
vector 819 GossipSubNetwork.nodes[82].connectionManager activeListUpdate:vector ETV
vector 820 GossipSubNetwork.nodes[253].connectionManager activeListUpdate:vector ETV
vector 821 GossipSubNetwork.nodes[91].connectionManager activeListUpdate:vector ETV
vector 822 GossipSubNetwork.nodes[1].connectionManager activeListUpdate:vector ETV
vector 823 GossipSubNetwork.nodes[329].connectionManager activeListUpdate:vector ETV
vector 824 GossipSubNetwork.nodes[47].connectionManager activeListUpdate:vector ETV
vector 825 GossipSubNetwork.nodes[176].connectionManager activeListUpdate:vector ETV
vector 826 GossipSubNetwork.nodes[493].connectionManager activeListUpdate:vector ETV
vector 827 GossipSubNetwork.nodes[266].connectionManager activeListUpdate:vector ETV
vector 828 GossipSubNetwork.nodes[470].connectionManager activeListUpdate:vector ETV
vector 829 GossipSubNetwork.nodes[480].connectionManager activeListUpdate:vector ETV
vector 830 GossipSubNetwork.nodes[378].connectionManager activeListUpdate:vector ETV
vector 831 GossipSubNetwork.nodes[148].connectionManager activeListUpdate:vector ETV
vector 832 GossipSubNetwork.nodes[435].connectionManager activeListUpdate:vector ETV
vector 833 GossipSubNetwork.nodes[242].connectionManager activeListUpdate:vector ETV
vector 834 GossipSubNetwork.nodes[171].connectionManager activeListUpdate:vector ETV
vector 835 GossipSubNetwork.nodes[401].connectionManager activeListUpdate:vector ETV
vector 836 GossipSubNetwork.nodes[88].connectionManager activeListUpdate:vector ETV
vector 837 GossipSubNetwork.nodes[194].connectionManager activeListUpdate:vector ETV
vector 838 GossipSubNetwork.nodes[259].connectionManager activeListUpdate:vector ETV
vector 839 GossipSubNetwork.nodes[343].connectionManager activeListUpdate:vector ETV
vector 840 GossipSubNetwork.nodes[417].connectionManager activeListUpdate:vector ETV
vector 841 GossipSubNetwork.nodes[73].connectionManager activeListUpdate:vector ETV
vector 842 GossipSubNetwork.nodes[432].connectionManager activeListUpdate:vector ETV
vector 843 GossipSubNetwork.nodes[23].connectionManager activeListUpdate:vector ETV
vector 844 GossipSubNetwork.nodes[187].connectionManager activeListUpdate:vector ETV
vector 845 GossipSubNetwork.nodes[272].connectionManager activeListUpdate:vector ETV
vector 846 GossipSubNetwork.nodes[56].connectionManager activeListUpdate:vector ETV
vector 847 GossipSubNetwork.nodes[338].connectionManager activeListUpdate:vector ETV
vector 848 GossipSubNetwork.nodes[62].connectionManager activeListUpdate:vector ETV
vector 849 GossipSubNetwork.nodes[139].connectionManager activeListUpdate:vector ETV
vector 850 GossipSubNetwork.nodes[476].connectionManager activeListUpdate:vector ETV
vector 851 GossipSubNetwork.nodes[115].connectionManager activeListUpdate:vector ETV
vector 852 GossipSubNetwork.nodes[370].connectionManager activeListUpdate:vector ETV
vector 853 GossipSubNetwork.nodes[367].connectionManager activeListUpdate:vector ETV
vector 854 GossipSubNetwork.nodes[112].connectionManager activeListUpdate:vector ETV
vector 855 GossipSubNetwork.nodes[124].connectionManager activeListUpdate:vector ETV
vector 856 GossipSubNetwork.nodes[76].connectionManager activeListUpdate:vector ETV
vector 857 GossipSubNetwork.nodes[413].connectionManager activeListUpdate:vector ETV
vector 858 GossipSubNetwork.nodes[354].connectionManager activeListUpdate:vector ETV
vector 859 GossipSubNetwork.nodes[360].connectionManager activeListUpdate:vector ETV
vector 860 GossipSubNetwork.nodes[356].connectionManager activeListUpdate:vector ETV
vector 861 GossipSubNetwork.nodes[377].connectionManager activeListUpdate:vector ETV
vector 862 GossipSubNetwork.nodes[108].connectionManager activeListUpdate:vector ETV
vector 863 GossipSubNetwork.nodes[321].connectionManager activeListUpdate:vector ETV
vector 864 GossipSubNetwork.nodes[341].connectionManager activeListUpdate:vector ETV
vector 865 GossipSubNetwork.nodes[282].connectionManager activeListUpdate:vector ETV
vector 866 GossipSubNetwork.nodes[118].connectionManager activeListUpdate:vector ETV
vector 867 GossipSubNetwork.nodes[151].connectionManager activeListUpdate:vector ETV
vector 868 GossipSubNetwork.nodes[81].connectionManager activeListUpdate:vector ETV
vector 869 GossipSubNetwork.nodes[327].connectionManager activeListUpdate:vector ETV
vector 870 GossipSubNetwork.nodes[440].connectionManager activeListUpdate:vector ETV
vector 871 GossipSubNetwork.nodes[415].connectionManager activeListUpdate:vector ETV
vector 872 GossipSubNetwork.nodes[451].connectionManager activeListUpdate:vector ETV
vector 873 GossipSubNetwork.nodes[11].connectionManager activeListUpdate:vector ETV
vector 874 GossipSubNetwork.nodes[37].connectionManager activeListUpdate:vector ETV
vector 875 GossipSubNetwork.nodes[39].connectionManager activeListUpdate:vector ETV
vector 876 GossipSubNetwork.nodes[471].connectionManager activeListUpdate:vector ETV
vector 877 GossipSubNetwork.nodes[192].connectionManager activeListUpdate:vector ETV
vector 878 GossipSubNetwork.nodes[86].connectionManager activeListUpdate:vector ETV
vector 879 GossipSubNetwork.nodes[285].connectionManager activeListUpdate:vector ETV
vector 880 GossipSubNetwork.nodes[293].connectionManager activeListUpdate:vector ETV
vector 881 GossipSubNetwork.nodes[167].connectionManager activeListUpdate:vector ETV
vector 882 GossipSubNetwork.nodes[490].connectionManager activeListUpdate:vector ETV
vector 883 GossipSubNetwork.nodes[9].connectionManager activeListUpdate:vector ETV
vector 884 GossipSubNetwork.nodes[3].connectionManager activeListUpdate:vector ETV
vector 885 GossipSubNetwork.nodes[8].connectionManager activeListUpdate:vector ETV
vector 886 GossipSubNetwork.nodes[305].connectionManager activeListUpdate:vector ETV
vector 887 GossipSubNetwork.nodes[209].connectionManager activeListUpdate:vector ETV
vector 888 GossipSubNetwork.nodes[497].connectionManager activeListUpdate:vector ETV
vector 889 GossipSubNetwork.nodes[324].connectionManager activeListUpdate:vector ETV
vector 890 GossipSubNetwork.nodes[446].connectionManager activeListUpdate:vector ETV
vector 891 GossipSubNetwork.nodes[78].connectionManager activeListUpdate:vector ETV
vector 892 GossipSubNetwork.nodes[368].connectionManager activeListUpdate:vector ETV
vector 893 GossipSubNetwork.nodes[198].connectionManager activeListUpdate:vector ETV
vector 894 GossipSubNetwork.nodes[484].connectionManager activeListUpdate:vector ETV
vector 895 GossipSubNetwork.nodes[340].connectionManager activeListUpdate:vector ETV
vector 896 GossipSubNetwork.nodes[67].connectionManager activeListUpdate:vector ETV
vector 897 GossipSubNetwork.nodes[168].connectionManager activeListUpdate:vector ETV
vector 898 GossipSubNetwork.nodes[286].connectionManager activeListUpdate:vector ETV
vector 899 GossipSubNetwork.nodes[61].connectionManager activeListUpdate:vector ETV
vector 900 GossipSubNetwork.nodes[223].connectionManager activeListUpdate:vector ETV
vector 901 GossipSubNetwork.nodes[188].connectionManager activeListUpdate:vector ETV
vector 902 GossipSubNetwork.nodes[398].connectionManager activeListUpdate:vector ETV
vector 903 GossipSubNetwork.nodes[20].connectionManager activeListUpdate:vector ETV
vector 904 GossipSubNetwork.nodes[310].connectionManager activeListUpdate:vector ETV
vector 905 GossipSubNetwork.nodes[225].connectionManager activeListUpdate:vector ETV
vector 906 GossipSubNetwork.nodes[452].connectionManager activeListUpdate:vector ETV
vector 907 GossipSubNetwork.nodes[430].connectionManager activeListUpdate:vector ETV
vector 908 GossipSubNetwork.nodes[345].connectionManager activeListUpdate:vector ETV
vector 909 GossipSubNetwork.nodes[199].connectionManager activeListUpdate:vector ETV
vector 910 GossipSubNetwork.nodes[302].connectionManager activeListUpdate:vector ETV
vector 911 GossipSubNetwork.nodes[348].connectionManager activeListUpdate:vector ETV
vector 912 GossipSubNetwork.nodes[311].connectionManager activeListUpdate:vector ETV
vector 913 GossipSubNetwork.nodes[244].connectionManager activeListUpdate:vector ETV
vector 914 GossipSubNetwork.nodes[308].connectionManager activeListUpdate:vector ETV
vector 915 GossipSubNetwork.nodes[342].connectionManager activeListUpdate:vector ETV
vector 916 GossipSubNetwork.nodes[70].connectionManager activeListUpdate:vector ETV
vector 917 GossipSubNetwork.nodes[32].connectionManager activeListUpdate:vector ETV
vector 918 GossipSubNetwork.nodes[275].connectionManager activeListUpdate:vector ETV
vector 919 GossipSubNetwork.nodes[232].connectionManager activeListUpdate:vector ETV
vector 920 GossipSubNetwork.nodes[333].connectionManager activeListUpdate:vector ETV
vector 921 GossipSubNetwork.nodes[80].connectionManager activeListUpdate:vector ETV
[...]
733	9737742 286 35246 1213369 0.928540024265 53.391262012089 10 1 10 55 385
734	9738028 275 35576 175158 0.934863498173 11.168542362626 10 1 10 55 385
735	9738303 280 35604 276206 0.935359221512 20.186354457158 10 1 10 55 385
736	9738583 279 35817 273294 0.939750719096 19.927809381313 10 1 10 55 385
737	9738862 282 35965 1252770 0.942012166837 55.202678176604 10 1 10 55 385
738	9739144 275 36059 219970 0.944256081924 15.096524662293 10 1 10 55 385
739	9739419 274 36064 139896 0.944258404906 8.187128020465 10 1 10 55 385
740	9739693 283 36106 429370 0.944923932703 23.052683542497 10 1 10 55 385
741	9739976 281 36176 680972 0.945923639425 33.050081087967 10 1 10 55 385
742	9740257 277 36255 158915 0.947506536083 9.789030615434 10 1 10 55 385
743	9740534 282 36340 234707 0.948627823654 16.420300403139 10 1 10 55 385
744	9740816 275 36380 244635 0.949020708282 17.309604534708 10 1 10 55 385
745	9741091 23169 36446 14569943 0.950405170807 599.406243990773 762 1 461 199975 64033373
746	9764260 277 36479 636444 0.950868962671 31.247802114212 10 1 10 55 385
747	9764537 280 36494 234254 0.950976553386 16.37482751453 10 1 10 55 385
748	9764817 278 36500 204536 0.951085366878 13.73667685928 10 1 10 55 385
749	9765095 282 36558 1354913 0.95205821799 58.83115073736 10 1 10 55 385
750	9765377 277 36563 191159 0.952235484614 12.552635115461 10 1 10 55 385
751	9765654 272 36689 127808 0.954515994861 7.177000952717 10 1 10 55 385
752	9765926 276 36745 419982 0.955585965198 22.381466217244 10 1 10 55 385
753	9766202 274 36860 139157 0.957333985796 8.129732234411 10 1 10 55 385
754	9766476 282 36889 227722 0.957577654014 15.793946074444 10 1 10 55 385
755	9766758 340 37058 224163 0.959857798969 15.477362681502 12 1 11 76 606
756	9767098 276 37074 194017 0.960074728614 12.800752494433 10 1 10 55 385
757	9767374 283 37146 2859678 0.961370040477 115.8006042209 10 1 10 55 385
758	9767657 273 37250 134430 0.963304142947 7.733032714531 10 1 10 55 385
759	9767930 288 37298 3573048 0.964013048027 143.718363418101 10 1 10 55 385
760	9768218 278 37322 183746 0.96425898536 11.926166161196 10 1 10 55 385
761	9768496 343 37332 660995 0.964531310055 32.269475373592 12 1 11 76 606
762	9768839 274 37346 202625 0.964625302961 13.565363568648 10 1 10 55 385
763	9769113 276 37420 169329 0.966078079559 10.662599673061 10 1 10 55 385
764	9769389 280 37445 217966 0.966388182345 14.914380045104 10 1 10 55 385
765	9769669 278 37563 233294 0.968768451649 16.289790829238 10 1 10 55 385
766	9769947 274 37582 134237 0.968964161336 7.716317823534 10 1 10 55 385
767	9770221 278 37588 261503 0.969009077655 18.831608168413 10 1 10 55 385
768	9770499 333 37753 165152 0.972273983467 10.317270851634 12 1 11 76 606
769	9770832 275 37759 136571 0.972405198623 7.916206887767 10 1 10 55 385
770	9771107 283 37797 6247874 0.973474089816 247.742679085168 10 1 10 55 385
771	9771390 280 37855 259224 0.974431886726 18.624567536376 10 1 10 55 385
772	9771670 273 37904 155204 0.97544532805 9.470688461548 10 1 10 55 385
773	9771943 276 37910 182380 0.975529523497 11.801820507617 10 1 10 55 385
774	9772219 278 38100 177496 0.979695885456 11.375271997391 10 1 10 55 385
775	9772497 280 38176 262604 0.981214640844 18.935150573759 10 1 10 55 385
776	9772777 279 38246 709860 0.982564598602 34.369046880124 10 1 10 55 385
777	9773056 279 38258 182178 0.982840773561 11.783314649745 10 1 10 55 385
778	9773335 277 38270 154100 0.98312515133 9.373848534391 10 1 10 55 385
779	9773612 280 38416 236642 0.986210337832 16.585109647306 10 1 10 55 385
780	9773892 277 38443 433575 0.986983413079 23.31117787254 10 1 10 55 385
781	9774169 281 38624 237753 0.990650083564 16.680424072015 10 1 10 55 385
782	9774450 279 38670 214751 0.991759534926 14.627825158548 10 1 10 55 385
783	9774729 286 38681 4645246 0.99193112881 186.131068579629 10 1 10 55 385
784	9775015 278 38687 207830 0.99199009567 14.032410347767 10 1 10 55 385
785	9775293 277 38692 413462 0.992070529556 21.990647947101 10 1 10 55 385
786	9775570 279 38726 215545 0.992658052923 14.691817949997 10 1 10 55 385
787	9775849 278 38805 259583 0.99378253925 18.653086976882 10 1 10 55 385
788	9776127 278 38820 175230 0.994098856997 11.175722382489 10 1 10 55 385
789	9776405 284 38888 1127651 0.995628951886 49.785604111219 10 1 10 55 385
790	9776689 275 38911 116041 0.996265261624 6.235262768613 10 1 10 55 385
791	9776964 282 39036 1031407 0.998524848812 44.696610614291 10 1 10 55 385
792	9777246 276 39082 1227592 0.999225512095 53.946883624345 10 1 10 55 385
793	9777522 284 39190 2196584 1.001961543643 88.661577784474 10 1 10 55 385
794	9777806 281 39208 253203 1.002125934182 18.091892255593 10 1 10 55 385
795	9778087 277 39216 145899 1.002260127782 8.678061450219 10 1 10 55 385
796	9778364 279 39255 754968 1.003347838652 36.126137251514 10 1 10 55 385
797	9778643 281 39281 1201366 1.004113356541 52.981540414399 10 1 10 55 385
798	9778924 279 39310 412507 1.004871242499 21.925172307412 10 1 10 55 385
799	9779203 278 39366 422149 1.006041077412 22.520207068072 10 1 10 55 385
800	9779481 279 39396 631348 1.007075028412 31.040536656818 10 1 10 55 385
801	9779760 276 39430 259424 1.007904776826 18.640186326464 10 1 10 55 385
802	9780036 274 39500 132292 1.009126999805 7.555411152089 10 1 10 55 385
803	9780310 279 39587 272338 1.010555787501 19.836499585096 10 1 10 55 385
804	9780589 279 39595 426479 1.010935521746 22.840796961078 10 1 10 55 385
805	9780868 276 39633 167987 1.011997476888 10.548372384467 10 1 10 55 385
806	9781144 276 39671 161493 1.012593867158 10.011580046328 10 1 10 55 385
807	9781420 280 39689 440479 1.012808810382 23.817302662922 10 1 10 55 385
808	9781700 279 39720 227142 1.013279624079 15.742122023828 10 1 10 55 385
809	9781979 279 39796 209548 1.014839026004 14.178744936633 10 1 10 55 385
810	9782258 278 39813 190320 1.015045546506 12.481881605292 10 1 10 55 385
811	9782536 281 39877 682882 1.016282709928 33.117131489068 10 1 10 55 385
812	9782817 274 39900 190888 1.016728120404 12.533095981703 10 1 10 55 385
813	9783091 271 39956 145270 1.018362154283 8.627326454429 10 1 10 55 385
814	9783362 278 39975 794407 1.01872435722 37.17054057544 10 1 10 55 385
815	9783640 278 40017 159353 1.019522447475 9.831365430999 10 1 10 55 385
816	9783918 275 40081 132354 1.020658605547 7.560023155178 10 1 10 55 385
817	9784193 282 40180 642725 1.022405080777 31.462876969664 10 1 10 55 385
818	9784475 281 40232 251288 1.023960463348 17.917681451112 10 1 10 55 385
819	9784756 277 40304 226995 1.025584815981 15.731263677118 10 1 10 55 385
820	9785033 278 40309 189257 1.025639569618 12.392550838564 10 1 10 55 385
821	9785311 279 40345 214860 1.026080812113 14.635584092754 10 1 10 55 385
822	9785590 24000 40369 14556556 1.026469961362 598.361290091736 791 1 492 223536 77019396
823	9809590 276 40414 192556 1.02782906327 12.670986460781 10 1 10 55 385
824	9809866 278 40430 781921 1.028415142396 36.855365710423 10 1 10 55 385
825	9810144 279 40659 178345 1.033420909994 11.452120682903 10 1 10 55 385
826	9810423 278 40721 474831 1.034387830333 25.47976753138 10 1 10 55 385
827	9810701 276 40802 503566 1.036901568703 26.571104469617 10 1 10 55 385
828	9810977 278 40849 451507 1.037824778088 24.438662339204 10 1 10 55 385
829	9811255 279 40854 174557 1.037887976455 11.118641640971 10 1 10 55 385
830	9811534 275 40943 167500 1.039739680625 10.511388586432 10 1 10 55 385
831	9811809 276 40987 135838 1.040394848199 7.853048821554 10 1 10 55 385
832	9812085 280 41105 845059 1.042601342931 38.903284854086 10 1 10 55 385
833	9812365 280 41213 616666 1.044176739346 30.382052653891 10 1 10 55 385
834	9812645 278 41263 212032 1.045152519307 14.393725507002 10 1 10 55 385
835	9812923 279 41280 321396 1.045572118958 20.776879146064 10 1 10 55 385
836	9813202 287 41285 2544619 1.045587585314 101.950412660395 10 1 10 55 385
837	9813489 279 41386 418874 1.048005921967 22.2994619484 10 1 10 55 385
838	9813768 279 41401 676926 1.048385209144 32.898312870685 10 1 10 55 385
839	9814047 280 41408 789998 1.04844274534 37.064203219196 10 1 10 55 385
840	9814327 282 41455 1134388 1.049321121287 50.095043995822 10 1 10 55 385
841	9814609 280 41541 264505 1.051641587382 19.112799303361 10 1 10 55 385
842	9814889 275 41567 164420 1.052024909033 10.253431868382 10 1 10 55 385
843	9815164 291 41670 4751312 1.053669729978 190.244473374986 10 1 10 55 385
844	9815455 280 41719 1926531 1.055188364682 77.956693693594 10 1 10 55 385
845	9815735 280 41731 554597 1.055552531085 28.348080706646 10 1 10 55 385
846	9816015 281 41789 652664 1.057111236224 31.90695559152 10 1 10 55 385
847	9816296 277 41824 178175 1.057942496597 11.439401863216 10 1 10 55 385
848	9816573 274 41881 202316 1.05958464047 13.5387976319 10 1 10 55 385
849	9816847 278 41963 194617 1.061487040291 12.853182512989 10 1 10 55 385
850	9817125 280 41972 1565018 1.061611973947 65.727479325556 10 1 10 55 385
851	9817405 282 42004 564881 1.06247244755 28.668178406044 10 1 10 55 385
852	9817687 281 42097 259858 1.064357526874 18.679663607259 10 1 10 55 385
853	9817968 271 42104 130941 1.064533431231 7.443427784091 10 1 10 55 385
854	9818239 274 42188 140420 1.066024243588 8.233309605797 10 1 10 55 385
855	9818513 280 42252 254210 1.068293692196 18.177305167176 10 1 10 55 385
856	9818793 280 42337 1250647 1.070081292262 55.073142675033 10 1 10 55 385
857	9819073 277 42376 785699 1.07053017508 36.953056363758 10 1 10 55 385
858	9819350 277 42411 173150 1.071197870463 10.993288400569 10 1 10 55 385
859	9819627 290 42454 5652612 1.071966560505 224.984833324403 10 1 10 55 385
860	9819917 279 42490 414114 1.072766121993 22.028561428844 10 1 10 55 385
861	9820196 281 42520 1123743 1.073432363438 49.605865135708 10 1 10 55 385
862	9820477 279 42534 255949 1.07356573656 18.331857369891 10 1 10 55 385
863	9820756 276 42581 132026 1.074750444194 7.536052976755 10 1 10 55 385
864	9821032 278 42685 485074 1.076933114918 25.932637363262 10 1 10 55 385
865	9821310 280 42774 1657874 1.079026818642 69.633777457645 10 1 10 55 385
866	9821590 278 42820 399639 1.080340841847 21.395720370959 10 1 10 55 385
867	9821868 280 42935 409815 1.083450596284 21.752125542585 10 1 10 55 385
868	9822148 278 42945 199277 1.083493649556 13.265030109703 10 1 10 55 385
869	9822426 269 43013 91955 1.084871913934 4.28326907032 10 1 10 55 385
870	9822695 280 43019 199557 1.085011911247 13.289830194356 10 1 10 55 385
871	9822975 272 43072 127771 1.085709982358 7.174212086945 10 1 10 55 385
872	9823247 264 43087 13483272 1.08590536823 536.493459293145 9 1 9 45 285
873	9823511 340 43101 223526 1.086021548976 15.420231655613 12 1 11 76 606
874	9823851 284 43113 1738673 1.086045323193 72.182914608654 10 1 10 55 385
875	9824135 275 43254 174838 1.08865973597 11.14153926288 10 1 10 55 385
876	9824410 278 43268 191076 1.088795315033 12.547298641588 10 1 10 55 385
877	9824688 279 43416 421232 1.0927201346 22.452583539802 10 1 10 55 385
878	9824967 282 43527 1562582 1.095867618836 65.605908767888 10 1 10 55 385
879	9825249 279 43533 178070 1.095950419878 11.428489093577 10 1 10 55 385
880	9825528 275 43586 227088 1.09712389749 15.738806404318 10 1 10 55 385
881	9825803 275 43789 158821 1.101417719692 9.780526079291 10 1 10 55 385
882	9826078 282 43808 694828 1.101833676445 33.659644388036 10 1 10 55 385
883	9826360 276 43897 138202 1.103754248196 8.054003257079 10 1 10 55 385
884	9826636 277 43902 187730 1.103830220845 12.263924662001 10 1 10 55 385
885	9826913 282 44006 1902589 1.10615644573 77.528638163551 10 1 10 55 385
886	9827195 282 44090 1262486 1.107791187678 55.757486162869 10 1 10 55 385
887	9827477 277 44191 228171 1.109643202797 15.837688823042 10 1 10 55 385
888	9827754 280 44228 547021 1.110207461435 28.118050605154 10 1 10 55 385
889	9828034 275 44250 171059 1.110704877664 10.815735061813 10 1 10 55 385
890	9828309 284 44260 1163076 1.110819020134 51.556015946817 10 1 10 55 385
891	9828593 278 44344 161505 1.112898341195 10.012612018721 10 1 10 55 385
892	9828871 273 44507 151604 1.116080464927 9.156419714028 10 1 10 55 385
893	9829144 272 44548 118719 1.116783769383 6.445517030864 10 1 10 55 385
894	9829416 274 44629 120743 1.11835422353 6.606916096837 10 1 10 55 385
895	9829690 278 44656 204103 1.118729821224 13.696492329858 10 1 10 55 385
896	9829968 338 44672 455999 1.119180056928 24.68009392052 12 1 11 76 606
897	9830306 280 44904 231817 1.12476930348 16.161025187928 10 1 10 55 385
898	9830586 282 45018 274721 1.126524762019 20.056310607782 10 1 10 55 385
899	9830868 280 45038 204783 1.127018756375 13.757597487477 10 1 10 55 385
900	9831148 277 45106 424783 1.128464338493 22.730560983713 10 1 10 55 385
901	9831425 280 45139 652080 1.128934529934 31.879512395306 10 1 10 55 385
902	9831705 283 45234 732588 1.130937832073 35.229142321338 10 1 10 55 385
903	9831988 333 45459 208926 1.135981935575 14.126976797856 12 1 11 76 606
904	9832321 282 45465 1648238 1.136005262127 69.330014536005 10 1 10 55 385
905	9832603 276 45511 199736 1.136977142429 13.307343157554 10 1 10 55 385
906	9832879 278 45574 181406 1.138428440036 11.720250364671 10 1 10 55 385
907	9833157 279 45581 196609 1.138766025123 13.032325189605 10 1 10 55 385
908	9833436 280 45658 669180 1.140930885769 32.609014519792 10 1 10 55 385
909	9833716 279 45716 210991 1.14220176023 14.303457138229 10 1 10 55 385
910	9833995 282 45766 890830 1.142921725962 40.782197233996 10 1 10 55 385
911	9834277 281 45780 1270214 1.143242726286 56.035874102717 10 1 10 55 385
912	9834558 278 45845 473937 1.14410188441 25.432507370135 10 1 10 55 385
913	9834836 282 45853 266451 1.144118316232 19.294658325365 10 1 10 55 385
914	9835118 277 45972 167720 1.146638053174 10.528631745116 10 1 10 55 385
915	9835395 279 45977 191153 1.146720218025 12.551927413538 10 1 10 55 385
916	9835674 278 46031 194046 1.147847440563 12.802981333923 10 1 10 55 385
917	9835952 276 46054 272665 1.148800771445 19.866499978578 10 1 10 55 385
918	9836228 274 46060 143756 1.148844115207 8.505341947479 10 1 10 55 385
919	9836502 275 46139 141864 1.15094970485 8.349257861831 10 1 10 55 385
920	9836777 331 46212 163231 1.15257365589 10.160998429702 12 1 11 76 606
921	9837108 279 46384 660780 1.156434106992 32.261931713675 10 1 10 55 385
922	9837387 272 46524 147174 1.159984335298 8.78279933404 10 1 10 55 385
923	9837659 272 46530 147413 1.160013199104 8.805357958975 10 1 10 55 385
924	9837931 280 46546 165852 1.160164925082 10.373574587042 10 1 10 55 385
925	9838211 279 46571 551549 1.160808552912 28.245763636712 10 1 10 55 385
926	9838490 293 46643 5470544 1.162471598628 217.566587042805 10 1 10 55 385
927	9838783 278 46650 161556 1.162677631292 10.016241624109 10 1 10 55 385
928	9839061 274 46723 156491 1.164162914236 9.581474149562 10 1 10 55 385
929	9839335 278 46841 210362 1.167039712795 14.245234475093 10 1 10 55 385
930	9839613 276 46851 203059 1.167166492594 13.606882199094 10 1 10 55 385
931	9839889 274 46949 157043 1.169367160737 9.631753863884 10 1 10 55 385
932	9840163 275 47111 172338 1.173452072445 10.92216528271 10 1 10 55 385
933	9840438 272 47149 145384 1.174169314673 8.63574433655 10 1 10 55 385
934	9840710 285 47207 1733922 1.175404396243 71.899560570877 10 1 10 55 385
935	9840995 281 47251 249393 1.176876049318 17.740547566266 10 1 10 55 385
936	9841276 275 47485 506256 1.184085611892 26.723284074185 10 1 10 55 385
937	9841551 281 47721 464752 1.188908670883 25.096996129166 10 1 10 55 385
938	9841832 277 47733 226329 1.188992269999 15.6671845711 10 1 10 55 385
939	9842109 276 47763 193967 1.190303795274 12.79526248844 10 1 10 55 385
940	9842385 275 47825 137618 1.192451931352 8.002516465508 10 1 10 55 385
941	9842660 274 47894 118576 1.19396377792 6.434473174852 10 1 10 55 385
942	9842934 335 48137 184109 1.200269676941 11.952393882173 12 1 11 76 606
943	9843269 277 48325 183337 1.205467525851 11.889215741962 10 1 10 55 385
944	9843546 278 48355 172393 1.205783344875 10.926636248953 10 1 10 55 385
945	9843824 274 48418 121435 1.207106262808 6.657626488722 10 1 10 55 385
946	9844098 275 48454 134588 1.208229216948 7.744784306029 10 1 10 55 385
947	9844373 275 48514 150044 1.209545320301 9.024037649452 10 1 10 55 385
948	9844648 273 48600 109719 1.211847080121 5.725243225585 10 1 10 55 385
949	9844921 277 48633 171273 1.212635548736 10.833291426652 10 1 10 55 385
950	9845198 276 48862 197315 1.218125594923 13.09288454249 10 1 10 55 385
951	9845474 277 48893 230380 1.218689676475 16.0354567041 10 1 10 55 385
952	9845751 279 48924 241070 1.219511171969 16.978700484155 10 1 10 55 385
953	9846030 275 48997 126885 1.221367411946 7.105831135539 10 1 10 55 385
954	9846305 277 49012 146933 1.221848766279 8.763934186274 10 1 10 55 385
955	9846582 275 49031 219687 1.222501309935 15.071290565937 10 1 10 55 385
956	9846857 273 49220 154926 1.227416328424 9.447392669408 10 1 10 55 385
957	9847130 281 49273 545029 1.228620374446 28.065925830452 10 1 10 55 385
958	9847411 273 49301 122498 1.229072970258 6.745850618486 10 1 10 55 385
959	9847684 278 49324 433732 1.22942597084 23.321121418009 10 1 10 55 385
960	9847962 280 49369 165607 1.230226795999 10.353278496244 10 1 10 55 385
961	9848242 274 49385 132335 1.230760918888 7.559106052611 10 1 10 55 385
962	9848516 331 49390 177320 1.230878940437 11.359474314496 12 1 11 76 606
963	9848847 275 49468 150686 1.232976406116 9.078684232991 10 1 10 55 385
964	9849122 274 49508 151440 1.233691814152 9.14259515321 10 1 10 55 385
965	9849396 271 49635 148214 1.236736607634 8.86964053252 10 1 10 55 385
966	9849667 276 49758 153212 1.241495231543 9.295371750597 10 1 10 55 385
967	9849943 271 49773 118289 1.242079551599 6.409909918963 10 1 10 55 385
968	9850214 276 49803 171593 1.242739585364 10.857626028965 10 1 10 55 385
969	9850490 273 49820 141543 1.243423764382 8.326139364674 10 1 10 55 385
970	9850763 337 50102 170943 1.249514374634 10.803552668759 12 1 11 76 606
971	9851100 275 50132 142363 1.250099084726 8.389937414122 10 1 10 55 385
972	9851375 274 50188 116352 1.251463589924 6.258832620748 10 1 10 55 385
973	9851649 269 50213 121281 1.252367468521 6.64674891149 10 1 10 55 385
974	9851918 329 50386 121230 1.257506421423 6.64352731186 12 1 11 76 606
975	9852247 273 50532 127167 1.261626766071 7.12797820018 10 1 10 55 385
976	9852520 276 50781 120785 1.267940893987 6.609680026847 10 1 10 55 385
977	9852796 276 50951 127518 1.271969116061 7.15636094405 10 1 10 55 385
978	9853072 273 50968 125220 1.272121696081 6.968427515019 10 1 10 55 385
979	9853345 280 50982 253620 1.272480278048 18.127439900812 10 1 10 55 385
980	9853625 271 51345 127068 1.28396570008 7.12019258619 10 1 10 55 385
981	9853896 330 51507 126050 1.289152507652 7.036819509212 12 1 11 76 606
982	9854226 330 51592 169017 1.291425248469 10.638180713962 12 1 11 76 606
983	9854556 274 51679 123854 1.293937782026 6.853777604542 10 1 10 55 385
984	9854830 336 51763 183753 1.29611657312 11.926386619768 12 1 11 76 606
985	9855166 331 51858 129253 1.298849544802 7.302143953123 12 1 11 76 606
986	9855497 276 51989 132018 1.302243987841 7.535876089901 10 1 10 55 385
987	9855773 273 52052 138390 1.304418328027 8.067875745567 10 1 10 55 385
988	9856046 269 52194 89582 1.309080209086 4.100758624189 10 1 10 55 385
989	9856315 330 52250 130443 1.310977717504 7.398372813236 12 1 11 76 606
990	9856645 268 52597 91696 1.323692160268 4.261041451095 10 1 10 55 385
991	9856913 272 52621 107643 1.32460450224 5.54971697664 10 1 10 55 385
992	9857185 332 52704 133215 1.326878465083 7.631406826735 12 1 11 76 606
993	9857517 271 53061 100837 1.338677887382 4.995553597831 10 1 10 55 385
994	9857788 269 53450 110969 1.351583798945 5.82759103661 10 1 10 55 385
995	9858057 276 53932 163215 1.368659211535 10.159303352911 10 1 10 55 385
996	9858333 331 53998 138502 1.370425164914 8.076303947466 12 1 11 76 606
997	9858664 271 54079 92553 1.373053850322 4.334278051444 10 1 10 55 385
998	9858935 269 54440 99738 1.386923618561 4.903584965544 10 1 10 55 385
999	9859204 272 55081 101523 1.411959551387 5.04777204193 10 1 10 55 385

