version 2
run EpiSub-15-20180813-23:15:56-28952
attr configname EpiSub
attr datetime 20180813-23:15:56
attr experiment EpiSub
attr inifile omnetpp.ini
attr iterationvars "$nodeCount=20000, $rampUpTime=20000 * 1s, $0=10Hz / 20000, $1=20000 * 1s + 20s"
attr iterationvarsf nodeCount=20000,rampUpTime=20000_#2a_1s,10Hz_#2f_20000,20000_#2a_1s_+_20s-
attr measurement "$nodeCount=20000, $rampUpTime=20000 * 1s, $0=10Hz / 20000, $1=20000 * 1s + 20s"
attr network sharding.Network
attr processid 28952
attr repetition 0
attr replication #0
attr resultdir results
attr runnumber 15
attr seedset 15
itervar nodeCount 20000
itervar rampUpTime "20000 * 1s"
param Network.nodeManager.nodeTypeName "\"sharding.episub.EpiSubNode\""
param Network.nodes[*].gossipHandler.notificationInterval 0.1s
param Network.nodes[*].missingTracker.waitTime 2s
param Network.nodeManager.bootstrapNodeCount 3
param Network.nodeManager.targetNodeCount 20000
param Network.nodeManager.rampUpTime "20000 * 1s"
param Network.nodes[*].source.rate "10Hz / 20000"
param Network.nodes[*].source.active true
param Network.nodes[*].source.warmupTime "20000 * 1s + 20s"
param Network.nodes[*].source.lifeTime 600s
param Network.nodes[*].connectionManager.numRandomNeighbors 2
param Network.nodes[*].connectionManager.numNearNeighbors 2
param Network.nodes[*].connectionManager.passiveListSize 42
param Network.nodes[*].connectionManager.contactNodes "\"0 1 2\""
param Network.nodes[*].connectionManager.activeHeartbeatInterval 2.0
param Network.nodes[*].connectionManager.joinTTL 1
param Network.nodes[*].connectionManager.forwardJoinTTL 1
param Network.nodes[*].connectionManager.shuffleInterval 2.0
param Network.nodes[*].connectionManager.activeShufflingSize 5
param Network.nodes[*].connectionManager.passiveShufflingSize 5
param Network.nodes[*].connectionManager.shuffleTTL 1

scalar Network.nodes[0] missingRequested:count 1079
scalar Network.nodes[0] newGossipReceived:count 823
scalar Network.nodes[0] newGossipEmitted:count 1
scalar Network.nodes[1] missingRequested:count 943
scalar Network.nodes[1] newGossipReceived:count 824
scalar Network.nodes[1] newGossipEmitted:count 0
scalar Network.nodes[2] missingRequested:count 859
scalar Network.nodes[2] newGossipReceived:count 823
scalar Network.nodes[2] newGossipEmitted:count 1
scalar Network.nodes[3] missingRequested:count 909
scalar Network.nodes[3] newGossipReceived:count 824
scalar Network.nodes[3] newGossipEmitted:count 0
scalar Network.nodes[4] missingRequested:count 988
scalar Network.nodes[4] newGossipReceived:count 823
scalar Network.nodes[4] newGossipEmitted:count 1
scalar Network.nodes[5] missingRequested:count 919
scalar Network.nodes[5] newGossipReceived:count 824
scalar Network.nodes[5] newGossipEmitted:count 0
scalar Network.nodes[6] missingRequested:count 823
scalar Network.nodes[6] newGossipReceived:count 824
scalar Network.nodes[6] newGossipEmitted:count 0
scalar Network.nodes[7] missingRequested:count 997
scalar Network.nodes[7] newGossipReceived:count 823
scalar Network.nodes[7] newGossipEmitted:count 1
scalar Network.nodes[8] missingRequested:count 980
scalar Network.nodes[8] newGossipReceived:count 823
scalar Network.nodes[8] newGossipEmitted:count 1
scalar Network.nodes[9] missingRequested:count 823
scalar Network.nodes[9] newGossipReceived:count 823
scalar Network.nodes[9] newGossipEmitted:count 1
scalar Network.nodes[10] missingRequested:count 0
scalar Network.nodes[10] newGossipReceived:count 823
scalar Network.nodes[10] newGossipEmitted:count 1
scalar Network.nodes[11] missingRequested:count 969
scalar Network.nodes[11] newGossipReceived:count 823
scalar Network.nodes[11] newGossipEmitted:count 1
scalar Network.nodes[12] missingRequested:count 865
scalar Network.nodes[12] newGossipReceived:count 823
scalar Network.nodes[12] newGossipEmitted:count 1
scalar Network.nodes[13] missingRequested:count 1324
scalar Network.nodes[13] newGossipReceived:count 823
scalar Network.nodes[13] newGossipEmitted:count 1
scalar Network.nodes[14] missingRequested:count 0
scalar Network.nodes[14] newGossipReceived:count 823
scalar Network.nodes[14] newGossipEmitted:count 1
scalar Network.nodes[15] missingRequested:count 977
scalar Network.nodes[15] newGossipReceived:count 822
scalar Network.nodes[15] newGossipEmitted:count 2
scalar Network.nodes[16] missingRequested:count 1417
scalar Network.nodes[16] newGossipReceived:count 824
scalar Network.nodes[16] newGossipEmitted:count 0
scalar Network.nodes[17] missingRequested:count 0
scalar Network.nodes[17] newGossipReceived:count 824
scalar Network.nodes[17] newGossipEmitted:count 0
scalar Network.nodes[18] missingRequested:count 0
scalar Network.nodes[18] newGossipReceived:count 823
scalar Network.nodes[18] newGossipEmitted:count 1
scalar Network.nodes[19] missingRequested:count 951
scalar Network.nodes[19] newGossipReceived:count 823
scalar Network.nodes[19] newGossipEmitted:count 1
scalar Network.nodes[20] missingRequested:count 823
scalar Network.nodes[20] newGossipReceived:count 824
scalar Network.nodes[20] newGossipEmitted:count 0
scalar Network.nodes[21] missingRequested:count 873
scalar Network.nodes[21] newGossipReceived:count 823
scalar Network.nodes[21] newGossipEmitted:count 1
scalar Network.nodes[22] missingRequested:count 1056
scalar Network.nodes[22] newGossipReceived:count 824
scalar Network.nodes[22] newGossipEmitted:count 0
scalar Network.nodes[23] missingRequested:count 823
scalar Network.nodes[23] newGossipReceived:count 824
scalar Network.nodes[23] newGossipEmitted:count 0
scalar Network.nodes[24] missingRequested:count 823
scalar Network.nodes[24] newGossipReceived:count 823
scalar Network.nodes[24] newGossipEmitted:count 1
scalar Network.nodes[25] missingRequested:count 1203
scalar Network.nodes[25] newGossipReceived:count 823
scalar Network.nodes[25] newGossipEmitted:count 1
scalar Network.nodes[26] missingRequested:count 923
scalar Network.nodes[26] newGossipReceived:count 823
scalar Network.nodes[26] newGossipEmitted:count 1
scalar Network.nodes[27] missingRequested:count 1016
scalar Network.nodes[27] newGossipReceived:count 823
scalar Network.nodes[27] newGossipEmitted:count 1
scalar Network.nodes[28] missingRequested:count 888
scalar Network.nodes[28] newGossipReceived:count 823
scalar Network.nodes[28] newGossipEmitted:count 1
scalar Network.nodes[29] missingRequested:count 823
scalar Network.nodes[29] newGossipReceived:count 824
scalar Network.nodes[29] newGossipEmitted:count 0
scalar Network.nodes[30] missingRequested:count 823
scalar Network.nodes[30] newGossipReceived:count 823
scalar Network.nodes[30] newGossipEmitted:count 1
scalar Network.nodes[31] missingRequested:count 0
scalar Network.nodes[31] newGossipReceived:count 823
scalar Network.nodes[31] newGossipEmitted:count 1
scalar Network.nodes[32] missingRequested:count 823
scalar Network.nodes[32] newGossipReceived:count 824
scalar Network.nodes[32] newGossipEmitted:count 0
scalar Network.nodes[33] missingRequested:count 1017
scalar Network.nodes[33] newGossipReceived:count 821
scalar Network.nodes[33] newGossipEmitted:count 3
scalar Network.nodes[34] missingRequested:count 1099
scalar Network.nodes[34] newGossipReceived:count 824
scalar Network.nodes[34] newGossipEmitted:count 0
scalar Network.nodes[35] missingRequested:count 1011
scalar Network.nodes[35] newGossipReceived:count 824
scalar Network.nodes[35] newGossipEmitted:count 0
scalar Network.nodes[36] missingRequested:count 924
scalar Network.nodes[36] newGossipReceived:count 824
scalar Network.nodes[36] newGossipEmitted:count 0
scalar Network.nodes[37] missingRequested:count 994
scalar Network.nodes[37] newGossipReceived:count 822
scalar Network.nodes[37] newGossipEmitted:count 2
scalar Network.nodes[38] missingRequested:count 0
scalar Network.nodes[38] newGossipReceived:count 823
scalar Network.nodes[38] newGossipEmitted:count 1
scalar Network.nodes[39] missingRequested:count 835
scalar Network.nodes[39] newGossipReceived:count 824
scalar Network.nodes[39] newGossipEmitted:count 0
scalar Network.nodes[40] missingRequested:count 1027
scalar Network.nodes[40] newGossipReceived:count 824
scalar Network.nodes[40] newGossipEmitted:count 0
scalar Network.nodes[41] missingRequested:count 923
scalar Network.nodes[41] newGossipReceived:count 823
scalar Network.nodes[41] newGossipEmitted:count 1
scalar Network.nodes[42] missingRequested:count 958
scalar Network.nodes[42] newGossipReceived:count 822
scalar Network.nodes[42] newGossipEmitted:count 2
scalar Network.nodes[43] missingRequested:count 943
scalar Network.nodes[43] newGossipReceived:count 823
scalar Network.nodes[43] newGossipEmitted:count 1
scalar Network.nodes[44] missingRequested:count 823
scalar Network.nodes[44] newGossipReceived:count 823
scalar Network.nodes[44] newGossipEmitted:count 1
scalar Network.nodes[45] missingRequested:count 823
scalar Network.nodes[45] newGossipReceived:count 823
scalar Network.nodes[45] newGossipEmitted:count 1
scalar Network.nodes[46] missingRequested:count 833
scalar Network.nodes[46] newGossipReceived:count 823
scalar Network.nodes[46] newGossipEmitted:count 1
scalar Network.nodes[47] missingRequested:count 963
scalar Network.nodes[47] newGossipReceived:count 824
scalar Network.nodes[47] newGossipEmitted:count 0
scalar Network.nodes[48] missingRequested:count 969
scalar Network.nodes[48] newGossipReceived:count 823
scalar Network.nodes[48] newGossipEmitted:count 1
scalar Network.nodes[49] missingRequested:count 952
scalar Network.nodes[49] newGossipReceived:count 823
scalar Network.nodes[49] newGossipEmitted:count 1
scalar Network.nodes[50] missingRequested:count 1047
scalar Network.nodes[50] newGossipReceived:count 823
scalar Network.nodes[50] newGossipEmitted:count 1
scalar Network.nodes[51] missingRequested:count 940
scalar Network.nodes[51] newGossipReceived:count 823
scalar Network.nodes[51] newGossipEmitted:count 1
scalar Network.nodes[52] missingRequested:count 969
scalar Network.nodes[52] newGossipReceived:count 824
scalar Network.nodes[52] newGossipEmitted:count 0
scalar Network.nodes[53] missingRequested:count 837
scalar Network.nodes[53] newGossipReceived:count 822
scalar Network.nodes[53] newGossipEmitted:count 2
scalar Network.nodes[54] missingRequested:count 876
scalar Network.nodes[54] newGossipReceived:count 824
scalar Network.nodes[54] newGossipEmitted:count 0
scalar Network.nodes[55] missingRequested:count 0
scalar Network.nodes[55] newGossipReceived:count 823
scalar Network.nodes[55] newGossipEmitted:count 1
scalar Network.nodes[56] missingRequested:count 1483
scalar Network.nodes[56] newGossipReceived:count 823
scalar Network.nodes[56] newGossipEmitted:count 1
scalar Network.nodes[57] missingRequested:count 996
scalar Network.nodes[57] newGossipReceived:count 822
scalar Network.nodes[57] newGossipEmitted:count 2
scalar Network.nodes[58] missingRequested:count 829
scalar Network.nodes[58] newGossipReceived:count 823
scalar Network.nodes[58] newGossipEmitted:count 1
scalar Network.nodes[59] missingRequested:count 0
scalar Network.nodes[59] newGossipReceived:count 823
scalar Network.nodes[59] newGossipEmitted:count 1
scalar Network.nodes[60] missingRequested:count 822
scalar Network.nodes[60] newGossipReceived:count 824
scalar Network.nodes[60] newGossipEmitted:count 0
scalar Network.nodes[61] missingRequested:count 823
scalar Network.nodes[61] newGossipReceived:count 822
scalar Network.nodes[61] newGossipEmitted:count 2
scalar Network.nodes[62] missingRequested:count 1031
scalar Network.nodes[62] newGossipReceived:count 823
scalar Network.nodes[62] newGossipEmitted:count 1
scalar Network.nodes[63] missingRequested:count 823
scalar Network.nodes[63] newGossipReceived:count 823
scalar Network.nodes[63] newGossipEmitted:count 1
scalar Network.nodes[64] missingRequested:count 989
scalar Network.nodes[64] newGossipReceived:count 823
scalar Network.nodes[64] newGossipEmitted:count 1
scalar Network.nodes[65] missingRequested:count 1052
scalar Network.nodes[65] newGossipReceived:count 823
scalar Network.nodes[65] newGossipEmitted:count 1
scalar Network.nodes[66] missingRequested:count 0
scalar Network.nodes[66] newGossipReceived:count 824
scalar Network.nodes[66] newGossipEmitted:count 0
scalar Network.nodes[67] missingRequested:count 0
scalar Network.nodes[67] newGossipReceived:count 824
scalar Network.nodes[67] newGossipEmitted:count 0
scalar Network.nodes[68] missingRequested:count 1062
scalar Network.nodes[68] newGossipReceived:count 823
scalar Network.nodes[68] newGossipEmitted:count 1
scalar Network.nodes[69] missingRequested:count 964
scalar Network.nodes[69] newGossipReceived:count 824
scalar Network.nodes[69] newGossipEmitted:count 0
scalar Network.nodes[70] missingRequested:count 823
scalar Network.nodes[70] newGossipReceived:count 823
scalar Network.nodes[70] newGossipEmitted:count 1
scalar Network.nodes[71] missingRequested:count 998
scalar Network.nodes[71] newGossipReceived:count 823
scalar Network.nodes[71] newGossipEmitted:count 1
scalar Network.nodes[72] missingRequested:count 0
scalar Network.nodes[72] newGossipReceived:count 823
scalar Network.nodes[72] newGossipEmitted:count 1
scalar Network.nodes[73] missingRequested:count 0
scalar Network.nodes[73] newGossipReceived:count 823
scalar Network.nodes[73] newGossipEmitted:count 1
scalar Network.nodes[74] missingRequested:count 997
scalar Network.nodes[74] newGossipReceived:count 824
scalar Network.nodes[74] newGossipEmitted:count 0
scalar Network.nodes[75] missingRequested:count 823
scalar Network.nodes[75] newGossipReceived:count 824
scalar Network.nodes[75] newGossipEmitted:count 0
scalar Network.nodes[76] missingRequested:count 870
scalar Network.nodes[76] newGossipReceived:count 823
scalar Network.nodes[76] newGossipEmitted:count 1
scalar Network.nodes[77] missingRequested:count 1055
scalar Network.nodes[77] newGossipReceived:count 824
scalar Network.nodes[77] newGossipEmitted:count 0
scalar Network.nodes[78] missingRequested:count 1099
scalar Network.nodes[78] newGossipReceived:count 824
scalar Network.nodes[78] newGossipEmitted:count 0
scalar Network.nodes[79] missingRequested:count 1307
scalar Network.nodes[79] newGossipReceived:count 823
scalar Network.nodes[79] newGossipEmitted:count 1
scalar Network.nodes[80] missingRequested:count 953
scalar Network.nodes[80] newGossipReceived:count 823
scalar Network.nodes[80] newGossipEmitted:count 1
scalar Network.nodes[81] missingRequested:count 1145
scalar Network.nodes[81] newGossipReceived:count 824
scalar Network.nodes[81] newGossipEmitted:count 0
scalar Network.nodes[82] missingRequested:count 1004
scalar Network.nodes[82] newGossipReceived:count 823
scalar Network.nodes[82] newGossipEmitted:count 1
scalar Network.nodes[83] missingRequested:count 882
scalar Network.nodes[83] newGossipReceived:count 823
scalar Network.nodes[83] newGossipEmitted:count 1
scalar Network.nodes[84] missingRequested:count 1029
scalar Network.nodes[84] newGossipReceived:count 824
scalar Network.nodes[84] newGossipEmitted:count 0
scalar Network.nodes[85] missingRequested:count 1002
scalar Network.nodes[85] newGossipReceived:count 822
scalar Network.nodes[85] newGossipEmitted:count 2
scalar Network.nodes[86] missingRequested:count 1039
scalar Network.nodes[86] newGossipReceived:count 823
scalar Network.nodes[86] newGossipEmitted:count 1
scalar Network.nodes[87] missingRequested:count 974
scalar Network.nodes[87] newGossipReceived:count 823
scalar Network.nodes[87] newGossipEmitted:count 1
scalar Network.nodes[88] missingRequested:count 1302
scalar Network.nodes[88] newGossipReceived:count 823
scalar Network.nodes[88] newGossipEmitted:count 1
scalar Network.nodes[89] missingRequested:count 943
scalar Network.nodes[89] newGossipReceived:count 823
scalar Network.nodes[89] newGossipEmitted:count 1
scalar Network.nodes[90] missingRequested:count 823
scalar Network.nodes[90] newGossipReceived:count 824
scalar Network.nodes[90] newGossipEmitted:count 0
scalar Network.nodes[91] missingRequested:count 911
scalar Network.nodes[91] newGossipReceived:count 824
scalar Network.nodes[91] newGossipEmitted:count 0
scalar Network.nodes[92] missingRequested:count 1100
scalar Network.nodes[92] newGossipReceived:count 823
scalar Network.nodes[92] newGossipEmitted:count 1
scalar Network.nodes[93] missingRequested:count 949
scalar Network.nodes[93] newGossipReceived:count 823
scalar Network.nodes[93] newGossipEmitted:count 1
scalar Network.nodes[94] missingRequested:count 1141
scalar Network.nodes[94] newGossipReceived:count 823
scalar Network.nodes[94] newGossipEmitted:count 1
scalar Network.nodes[95] missingRequested:count 864
scalar Network.nodes[95] newGossipReceived:count 824
scalar Network.nodes[95] newGossipEmitted:count 0
scalar Network.nodes[96] missingRequested:count 842
scalar Network.nodes[96] newGossipReceived:count 824
scalar Network.nodes[96] newGossipEmitted:count 0
scalar Network.nodes[97] missingRequested:count 879
scalar Network.nodes[97] newGossipReceived:count 824
scalar Network.nodes[97] newGossipEmitted:count 0
scalar Network.nodes[98] missingRequested:count 846
scalar Network.nodes[98] newGossipReceived:count 822
scalar Network.nodes[98] newGossipEmitted:count 2
scalar Network.nodes[99] missingRequested:count 1032
scalar Network.nodes[99] newGossipReceived:count 823
scalar Network.nodes[99] newGossipEmitted:count 1
scalar Network.nodes[100] missingRequested:count 1120
scalar Network.nodes[100] newGossipReceived:count 824
scalar Network.nodes[100] newGossipEmitted:count 0
scalar Network.nodes[101] missingRequested:count 958
scalar Network.nodes[101] newGossipReceived:count 823
scalar Network.nodes[101] newGossipEmitted:count 1
scalar Network.nodes[102] missingRequested:count 943
scalar Network.nodes[102] newGossipReceived:count 823
scalar Network.nodes[102] newGossipEmitted:count 1
scalar Network.nodes[103] missingRequested:count 1126
scalar Network.nodes[103] newGossipReceived:count 824
scalar Network.nodes[103] newGossipEmitted:count 0
scalar Network.nodes[104] missingRequested:count 823
scalar Network.nodes[104] newGossipReceived:count 823
scalar Network.nodes[104] newGossipEmitted:count 1
scalar Network.nodes[105] missingRequested:count 933
scalar Network.nodes[105] newGossipReceived:count 823
scalar Network.nodes[105] newGossipEmitted:count 1
scalar Network.nodes[106] missingRequested:count 823
scalar Network.nodes[106] newGossipReceived:count 823
scalar Network.nodes[106] newGossipEmitted:count 1
scalar Network.nodes[107] missingRequested:count 1096
scalar Network.nodes[107] newGossipReceived:count 822
scalar Network.nodes[107] newGossipEmitted:count 2
scalar Network.nodes[108] missingRequested:count 0
scalar Network.nodes[108] newGossipReceived:count 823
scalar Network.nodes[108] newGossipEmitted:count 1
scalar Network.nodes[109] missingRequested:count 0
scalar Network.nodes[109] newGossipReceived:count 824
scalar Network.nodes[109] newGossipEmitted:count 0
scalar Network.nodes[110] missingRequested:count 1009
scalar Network.nodes[110] newGossipReceived:count 824
scalar Network.nodes[110] newGossipEmitted:count 0
scalar Network.nodes[111] missingRequested:count 944
scalar Network.nodes[111] newGossipReceived:count 823
scalar Network.nodes[111] newGossipEmitted:count 1
scalar Network.nodes[112] missingRequested:count 984
scalar Network.nodes[112] newGossipReceived:count 823
scalar Network.nodes[112] newGossipEmitted:count 1
scalar Network.nodes[113] missingRequested:count 1052
scalar Network.nodes[113] newGossipReceived:count 823
scalar Network.nodes[113] newGossipEmitted:count 1
scalar Network.nodes[114] missingRequested:count 957
scalar Network.nodes[114] newGossipReceived:count 823
scalar Network.nodes[114] newGossipEmitted:count 1
scalar Network.nodes[115] missingRequested:count 964
scalar Network.nodes[115] newGossipReceived:count 823
scalar Network.nodes[115] newGossipEmitted:count 1
scalar Network.nodes[116] missingRequested:count 823
scalar Network.nodes[116] newGossipReceived:count 824
scalar Network.nodes[116] newGossipEmitted:count 0
scalar Network.nodes[117] missingRequested:count 933
scalar Network.nodes[117] newGossipReceived:count 823
scalar Network.nodes[117] newGossipEmitted:count 1
scalar Network.nodes[118] missingRequested:count 0
scalar Network.nodes[118] newGossipReceived:count 824
scalar Network.nodes[118] newGossipEmitted:count 0
scalar Network.nodes[119] missingRequested:count 823
scalar Network.nodes[119] newGossipReceived:count 823
scalar Network.nodes[119] newGossipEmitted:count 1
scalar Network.nodes[120] missingRequested:count 1023
scalar Network.nodes[120] newGossipReceived:count 824
scalar Network.nodes[120] newGossipEmitted:count 0
scalar Network.nodes[121] missingRequested:count 0
scalar Network.nodes[121] newGossipReceived:count 824
scalar Network.nodes[121] newGossipEmitted:count 0
scalar Network.nodes[122] missingRequested:count 950
scalar Network.nodes[122] newGossipReceived:count 823
scalar Network.nodes[122] newGossipEmitted:count 1
scalar Network.nodes[123] missingRequested:count 902
scalar Network.nodes[123] newGossipReceived:count 822
scalar Network.nodes[123] newGossipEmitted:count 2
scalar Network.nodes[124] missingRequested:count 930
scalar Network.nodes[124] newGossipReceived:count 823
scalar Network.nodes[124] newGossipEmitted:count 1
scalar Network.nodes[125] missingRequested:count 0
scalar Network.nodes[125] newGossipReceived:count 823
scalar Network.nodes[125] newGossipEmitted:count 1
scalar Network.nodes[126] missingRequested:count 0
scalar Network.nodes[126] newGossipReceived:count 824
scalar Network.nodes[126] newGossipEmitted:count 0
scalar Network.nodes[127] missingRequested:count 823
scalar Network.nodes[127] newGossipReceived:count 824
scalar Network.nodes[127] newGossipEmitted:count 0
scalar Network.nodes[128] missingRequested:count 886
scalar Network.nodes[128] newGossipReceived:count 824
scalar Network.nodes[128] newGossipEmitted:count 0
scalar Network.nodes[129] missingRequested:count 886
scalar Network.nodes[129] newGossipReceived:count 823
scalar Network.nodes[129] newGossipEmitted:count 1
scalar Network.nodes[130] missingRequested:count 0
scalar Network.nodes[130] newGossipReceived:count 824
scalar Network.nodes[130] newGossipEmitted:count 0
scalar Network.nodes[131] missingRequested:count 949
scalar Network.nodes[131] newGossipReceived:count 824
scalar Network.nodes[131] newGossipEmitted:count 0
scalar Network.nodes[132] missingRequested:count 917
scalar Network.nodes[132] newGossipReceived:count 824
scalar Network.nodes[132] newGossipEmitted:count 0
scalar Network.nodes[133] missingRequested:count 0
scalar Network.nodes[133] newGossipReceived:count 823
scalar Network.nodes[133] newGossipEmitted:count 1
scalar Network.nodes[134] missingRequested:count 0
scalar Network.nodes[134] newGossipReceived:count 823
scalar Network.nodes[134] newGossipEmitted:count 1
scalar Network.nodes[135] missingRequested:count 1124
scalar Network.nodes[135] newGossipReceived:count 823
scalar Network.nodes[135] newGossipEmitted:count 1
scalar Network.nodes[136] missingRequested:count 854
scalar Network.nodes[136] newGossipReceived:count 823
scalar Network.nodes[136] newGossipEmitted:count 1
scalar Network.nodes[137] missingRequested:count 938
scalar Network.nodes[137] newGossipReceived:count 823
scalar Network.nodes[137] newGossipEmitted:count 1
scalar Network.nodes[138] missingRequested:count 823
scalar Network.nodes[138] newGossipReceived:count 824
scalar Network.nodes[138] newGossipEmitted:count 0
scalar Network.nodes[139] missingRequested:count 946
scalar Network.nodes[139] newGossipReceived:count 824
scalar Network.nodes[139] newGossipEmitted:count 0
scalar Network.nodes[140] missingRequested:count 919
scalar Network.nodes[140] newGossipReceived:count 824
scalar Network.nodes[140] newGossipEmitted:count 0
scalar Network.nodes[141] missingRequested:count 930
scalar Network.nodes[141] newGossipReceived:count 824
scalar Network.nodes[141] newGossipEmitted:count 0
scalar Network.nodes[142] missingRequested:count 984
scalar Network.nodes[142] newGossipReceived:count 824
scalar Network.nodes[142] newGossipEmitted:count 0
scalar Network.nodes[143] missingRequested:count 920
scalar Network.nodes[143] newGossipReceived:count 824
scalar Network.nodes[143] newGossipEmitted:count 0
scalar Network.nodes[144] missingRequested:count 954
scalar Network.nodes[144] newGossipReceived:count 824
scalar Network.nodes[144] newGossipEmitted:count 0
scalar Network.nodes[145] missingRequested:count 1089
scalar Network.nodes[145] newGossipReceived:count 823
scalar Network.nodes[145] newGossipEmitted:count 1
scalar Network.nodes[146] missingRequested:count 921
scalar Network.nodes[146] newGossipReceived:count 824
scalar Network.nodes[146] newGossipEmitted:count 0
scalar Network.nodes[147] missingRequested:count 1024
scalar Network.nodes[147] newGossipReceived:count 824
scalar Network.nodes[147] newGossipEmitted:count 0
scalar Network.nodes[148] missingRequested:count 995
scalar Network.nodes[148] newGossipReceived:count 823
scalar Network.nodes[148] newGossipEmitted:count 1
scalar Network.nodes[149] missingRequested:count 1047
scalar Network.nodes[149] newGossipReceived:count 823
scalar Network.nodes[149] newGossipEmitted:count 1
scalar Network.nodes[150] missingRequested:count 923
scalar Network.nodes[150] newGossipReceived:count 824
scalar Network.nodes[150] newGossipEmitted:count 0
scalar Network.nodes[151] missingRequested:count 978
scalar Network.nodes[151] newGossipReceived:count 823
scalar Network.nodes[151] newGossipEmitted:count 1
scalar Network.nodes[152] missingRequested:count 873
scalar Network.nodes[152] newGossipReceived:count 824
scalar Network.nodes[152] newGossipEmitted:count 0
scalar Network.nodes[153] missingRequested:count 892
scalar Network.nodes[153] newGossipReceived:count 823
scalar Network.nodes[153] newGossipEmitted:count 1
scalar Network.nodes[154] missingRequested:count 1052
scalar Network.nodes[154] newGossipReceived:count 824
scalar Network.nodes[154] newGossipEmitted:count 0
scalar Network.nodes[155] missingRequested:count 974
scalar Network.nodes[155] newGossipReceived:count 823
scalar Network.nodes[155] newGossipEmitted:count 1
scalar Network.nodes[156] missingRequested:count 0
scalar Network.nodes[156] newGossipReceived:count 823
scalar Network.nodes[156] newGossipEmitted:count 1
scalar Network.nodes[157] missingRequested:count 861
scalar Network.nodes[157] newGossipReceived:count 823
scalar Network.nodes[157] newGossipEmitted:count 1
scalar Network.nodes[158] missingRequested:count 1008
scalar Network.nodes[158] newGossipReceived:count 823
scalar Network.nodes[158] newGossipEmitted:count 1
scalar Network.nodes[159] missingRequested:count 904
scalar Network.nodes[159] newGossipReceived:count 823
scalar Network.nodes[159] newGossipEmitted:count 1
scalar Network.nodes[160] missingRequested:count 0
scalar Network.nodes[160] newGossipReceived:count 823
scalar Network.nodes[160] newGossipEmitted:count 1
scalar Network.nodes[161] missingRequested:count 1150
scalar Network.nodes[161] newGossipReceived:count 823
scalar Network.nodes[161] newGossipEmitted:count 1
scalar Network.nodes[162] missingRequested:count 0
scalar Network.nodes[162] newGossipReceived:count 823
scalar Network.nodes[162] newGossipEmitted:count 1
scalar Network.nodes[163] missingRequested:count 995
scalar Network.nodes[163] newGossipReceived:count 823
scalar Network.nodes[163] newGossipEmitted:count 1
scalar Network.nodes[164] missingRequested:count 0
scalar Network.nodes[164] newGossipReceived:count 824
scalar Network.nodes[164] newGossipEmitted:count 0
scalar Network.nodes[165] missingRequested:count 1085
scalar Network.nodes[165] newGossipReceived:count 824
scalar Network.nodes[165] newGossipEmitted:count 0
scalar Network.nodes[166] missingRequested:count 913
scalar Network.nodes[166] newGossipReceived:count 823
scalar Network.nodes[166] newGossipEmitted:count 1
scalar Network.nodes[167] missingRequested:count 1227
scalar Network.nodes[167] newGossipReceived:count 824
scalar Network.nodes[167] newGossipEmitted:count 0
scalar Network.nodes[168] missingRequested:count 1446
scalar Network.nodes[168] newGossipReceived:count 822
scalar Network.nodes[168] newGossipEmitted:count 2
scalar Network.nodes[169] missingRequested:count 823
scalar Network.nodes[169] newGossipReceived:count 823
scalar Network.nodes[169] newGossipEmitted:count 1
scalar Network.nodes[170] missingRequested:count 1017
scalar Network.nodes[170] newGossipReceived:count 824
scalar Network.nodes[170] newGossipEmitted:count 0
scalar Network.nodes[171] missingRequested:count 1106
scalar Network.nodes[171] newGossipReceived:count 824
scalar Network.nodes[171] newGossipEmitted:count 0
scalar Network.nodes[172] missingRequested:count 1029
scalar Network.nodes[172] newGossipReceived:count 823
scalar Network.nodes[172] newGossipEmitted:count 1
scalar Network.nodes[173] missingRequested:count 1208
scalar Network.nodes[173] newGossipReceived:count 824
scalar Network.nodes[173] newGossipEmitted:count 0
scalar Network.nodes[174] missingRequested:count 0
scalar Network.nodes[174] newGossipReceived:count 823
scalar Network.nodes[174] newGossipEmitted:count 1
scalar Network.nodes[175] missingRequested:count 942
scalar Network.nodes[175] newGossipReceived:count 824
scalar Network.nodes[175] newGossipEmitted:count 0
scalar Network.nodes[176] missingRequested:count 936
scalar Network.nodes[176] newGossipReceived:count 823
scalar Network.nodes[176] newGossipEmitted:count 1
scalar Network.nodes[177] missingRequested:count 823
scalar Network.nodes[177] newGossipReceived:count 824
scalar Network.nodes[177] newGossipEmitted:count 0
scalar Network.nodes[178] missingRequested:count 0
scalar Network.nodes[178] newGossipReceived:count 824
scalar Network.nodes[178] newGossipEmitted:count 0
scalar Network.nodes[179] missingRequested:count 892
scalar Network.nodes[179] newGossipReceived:count 823
scalar Network.nodes[179] newGossipEmitted:count 1
scalar Network.nodes[180] missingRequested:count 913
scalar Network.nodes[180] newGossipReceived:count 824
scalar Network.nodes[180] newGossipEmitted:count 0
scalar Network.nodes[181] missingRequested:count 951
scalar Network.nodes[181] newGossipReceived:count 823
scalar Network.nodes[181] newGossipEmitted:count 1
scalar Network.nodes[182] missingRequested:count 951
scalar Network.nodes[182] newGossipReceived:count 824
scalar Network.nodes[182] newGossipEmitted:count 0
scalar Network.nodes[183] missingRequested:count 905
scalar Network.nodes[183] newGossipReceived:count 824
scalar Network.nodes[183] newGossipEmitted:count 0
scalar Network.nodes[184] missingRequested:count 823
scalar Network.nodes[184] newGossipReceived:count 824
scalar Network.nodes[184] newGossipEmitted:count 0
scalar Network.nodes[185] missingRequested:count 996
scalar Network.nodes[185] newGossipReceived:count 824
scalar Network.nodes[185] newGossipEmitted:count 0
scalar Network.nodes[186] missingRequested:count 973
scalar Network.nodes[186] newGossipReceived:count 824
scalar Network.nodes[186] newGossipEmitted:count 0
scalar Network.nodes[187] missingRequested:count 1060
scalar Network.nodes[187] newGossipReceived:count 823
scalar Network.nodes[187] newGossipEmitted:count 1
scalar Network.nodes[188] missingRequested:count 992
scalar Network.nodes[188] newGossipReceived:count 823
scalar Network.nodes[188] newGossipEmitted:count 1
scalar Network.nodes[189] missingRequested:count 823
scalar Network.nodes[189] newGossipReceived:count 823
scalar Network.nodes[189] newGossipEmitted:count 1
scalar Network.nodes[190] missingRequested:count 830
scalar Network.nodes[190] newGossipReceived:count 824
scalar Network.nodes[190] newGossipEmitted:count 0
scalar Network.nodes[191] missingRequested:count 961
scalar Network.nodes[191] newGossipReceived:count 824
scalar Network.nodes[191] newGossipEmitted:count 0
scalar Network.nodes[192] missingRequested:count 823
scalar Network.nodes[192] newGossipReceived:count 823
scalar Network.nodes[192] newGossipEmitted:count 1
scalar Network.nodes[193] missingRequested:count 898
scalar Network.nodes[193] newGossipReceived:count 823
scalar Network.nodes[193] newGossipEmitted:count 1
scalar Network.nodes[194] missingRequested:count 0
scalar Network.nodes[194] newGossipReceived:count 823
scalar Network.nodes[194] newGossipEmitted:count 1
scalar Network.nodes[195] missingRequested:count 1015
scalar Network.nodes[195] newGossipReceived:count 823
scalar Network.nodes[195] newGossipEmitted:count 1
scalar Network.nodes[196] missingRequested:count 0
scalar Network.nodes[196] newGossipReceived:count 823
scalar Network.nodes[196] newGossipEmitted:count 1
scalar Network.nodes[197] missingRequested:count 823
scalar Network.nodes[197] newGossipReceived:count 823
scalar Network.nodes[197] newGossipEmitted:count 1
scalar Network.nodes[198] missingRequested:count 847
scalar Network.nodes[198] newGossipReceived:count 823
scalar Network.nodes[198] newGossipEmitted:count 1
scalar Network.nodes[199] missingRequested:count 831
scalar Network.nodes[199] newGossipReceived:count 822
scalar Network.nodes[199] newGossipEmitted:count 2
scalar Network.nodes[200] missingRequested:count 1015
scalar Network.nodes[200] newGossipReceived:count 823
scalar Network.nodes[200] newGossipEmitted:count 1
scalar Network.nodes[201] missingRequested:count 989
scalar Network.nodes[201] newGossipReceived:count 823
scalar Network.nodes[201] newGossipEmitted:count 1
scalar Network.nodes[202] missingRequested:count 1029
scalar Network.nodes[202] newGossipReceived:count 823
scalar Network.nodes[202] newGossipEmitted:count 1
scalar Network.nodes[203] missingRequested:count 1172
scalar Network.nodes[203] newGossipReceived:count 823
scalar Network.nodes[203] newGossipEmitted:count 1
scalar Network.nodes[204] missingRequested:count 0
scalar Network.nodes[204] newGossipReceived:count 823
scalar Network.nodes[204] newGossipEmitted:count 1
scalar Network.nodes[205] missingRequested:count 977
scalar Network.nodes[205] newGossipReceived:count 823
scalar Network.nodes[205] newGossipEmitted:count 1
scalar Network.nodes[206] missingRequested:count 1257
scalar Network.nodes[206] newGossipReceived:count 824
scalar Network.nodes[206] newGossipEmitted:count 0
scalar Network.nodes[207] missingRequested:count 952
scalar Network.nodes[207] newGossipReceived:count 824
scalar Network.nodes[207] newGossipEmitted:count 0
scalar Network.nodes[208] missingRequested:count 823
scalar Network.nodes[208] newGossipReceived:count 823
scalar Network.nodes[208] newGossipEmitted:count 1
scalar Network.nodes[209] missingRequested:count 887
scalar Network.nodes[209] newGossipReceived:count 823
scalar Network.nodes[209] newGossipEmitted:count 1
scalar Network.nodes[210] missingRequested:count 913
scalar Network.nodes[210] newGossipReceived:count 823
scalar Network.nodes[210] newGossipEmitted:count 1
scalar Network.nodes[211] missingRequested:count 998
scalar Network.nodes[211] newGossipReceived:count 824
scalar Network.nodes[211] newGossipEmitted:count 0
scalar Network.nodes[212] missingRequested:count 910
scalar Network.nodes[212] newGossipReceived:count 823
scalar Network.nodes[212] newGossipEmitted:count 1
scalar Network.nodes[213] missingRequested:count 823
scalar Network.nodes[213] newGossipReceived:count 823
scalar Network.nodes[213] newGossipEmitted:count 1
scalar Network.nodes[214] missingRequested:count 975
scalar Network.nodes[214] newGossipReceived:count 823
scalar Network.nodes[214] newGossipEmitted:count 1
scalar Network.nodes[215] missingRequested:count 1308
scalar Network.nodes[215] newGossipReceived:count 823
scalar Network.nodes[215] newGossipEmitted:count 1
scalar Network.nodes[216] missingRequested:count 960
scalar Network.nodes[216] newGossipReceived:count 823
scalar Network.nodes[216] newGossipEmitted:count 1
scalar Network.nodes[217] missingRequested:count 1191
scalar Network.nodes[217] newGossipReceived:count 823
scalar Network.nodes[217] newGossipEmitted:count 1
scalar Network.nodes[218] missingRequested:count 949
scalar Network.nodes[218] newGossipReceived:count 823
scalar Network.nodes[218] newGossipEmitted:count 1
scalar Network.nodes[219] missingRequested:count 920
scalar Network.nodes[219] newGossipReceived:count 823
scalar Network.nodes[219] newGossipEmitted:count 1
scalar Network.nodes[220] missingRequested:count 963
scalar Network.nodes[220] newGossipReceived:count 824
scalar Network.nodes[220] newGossipEmitted:count 0
scalar Network.nodes[221] missingRequested:count 1041
scalar Network.nodes[221] newGossipReceived:count 823
scalar Network.nodes[221] newGossipEmitted:count 1
scalar Network.nodes[222] missingRequested:count 960
scalar Network.nodes[222] newGossipReceived:count 823
scalar Network.nodes[222] newGossipEmitted:count 1
scalar Network.nodes[223] missingRequested:count 1122
scalar Network.nodes[223] newGossipReceived:count 824
scalar Network.nodes[223] newGossipEmitted:count 0
scalar Network.nodes[224] missingRequested:count 775
scalar Network.nodes[224] newGossipReceived:count 824
scalar Network.nodes[224] newGossipEmitted:count 0
scalar Network.nodes[225] missingRequested:count 1110
scalar Network.nodes[225] newGossipReceived:count 823
scalar Network.nodes[225] newGossipEmitted:count 1
scalar Network.nodes[226] missingRequested:count 1011
scalar Network.nodes[226] newGossipReceived:count 823
scalar Network.nodes[226] newGossipEmitted:count 1
scalar Network.nodes[227] missingRequested:count 938
scalar Network.nodes[227] newGossipReceived:count 824
scalar Network.nodes[227] newGossipEmitted:count 0
scalar Network.nodes[228] missingRequested:count 1006
scalar Network.nodes[228] newGossipReceived:count 824
scalar Network.nodes[228] newGossipEmitted:count 0
scalar Network.nodes[229] missingRequested:count 1163
scalar Network.nodes[229] newGossipReceived:count 824
scalar Network.nodes[229] newGossipEmitted:count 0
scalar Network.nodes[230] missingRequested:count 1014
scalar Network.nodes[230] newGossipReceived:count 823
scalar Network.nodes[230] newGossipEmitted:count 1
scalar Network.nodes[231] missingRequested:count 823
scalar Network.nodes[231] newGossipReceived:count 822
scalar Network.nodes[231] newGossipEmitted:count 2
scalar Network.nodes[232] missingRequested:count 930
scalar Network.nodes[232] newGossipReceived:count 823
scalar Network.nodes[232] newGossipEmitted:count 1
scalar Network.nodes[233] missingRequested:count 903
scalar Network.nodes[233] newGossipReceived:count 824
scalar Network.nodes[233] newGossipEmitted:count 0
scalar Network.nodes[234] missingRequested:count 1241
scalar Network.nodes[234] newGossipReceived:count 823
scalar Network.nodes[234] newGossipEmitted:count 1
scalar Network.nodes[235] missingRequested:count 1306
scalar Network.nodes[235] newGossipReceived:count 823
scalar Network.nodes[235] newGossipEmitted:count 1
scalar Network.nodes[236] missingRequested:count 963
scalar Network.nodes[236] newGossipReceived:count 823
scalar Network.nodes[236] newGossipEmitted:count 1
scalar Network.nodes[237] missingRequested:count 0
scalar Network.nodes[237] newGossipReceived:count 823
scalar Network.nodes[237] newGossipEmitted:count 1
scalar Network.nodes[238] missingRequested:count 897
scalar Network.nodes[238] newGossipReceived:count 824
scalar Network.nodes[238] newGossipEmitted:count 0
scalar Network.nodes[239] missingRequested:count 0
scalar Network.nodes[239] newGossipReceived:count 823
scalar Network.nodes[239] newGossipEmitted:count 1
scalar Network.nodes[240] missingRequested:count 823
scalar Network.nodes[240] newGossipReceived:count 823
scalar Network.nodes[240] newGossipEmitted:count 1
scalar Network.nodes[241] missingRequested:count 846
scalar Network.nodes[241] newGossipReceived:count 824
scalar Network.nodes[241] newGossipEmitted:count 0
scalar Network.nodes[242] missingRequested:count 1112
scalar Network.nodes[242] newGossipReceived:count 824
scalar Network.nodes[242] newGossipEmitted:count 0
scalar Network.nodes[243] missingRequested:count 1231
scalar Network.nodes[243] newGossipReceived:count 824
scalar Network.nodes[243] newGossipEmitted:count 0
scalar Network.nodes[244] missingRequested:count 909
scalar Network.nodes[244] newGossipReceived:count 823
scalar Network.nodes[244] newGossipEmitted:count 1
scalar Network.nodes[245] missingRequested:count 1045
scalar Network.nodes[245] newGossipReceived:count 823
scalar Network.nodes[245] newGossipEmitted:count 1
scalar Network.nodes[246] missingRequested:count 1124
scalar Network.nodes[246] newGossipReceived:count 824
scalar Network.nodes[246] newGossipEmitted:count 0
scalar Network.nodes[247] missingRequested:count 1025
scalar Network.nodes[247] newGossipReceived:count 824
scalar Network.nodes[247] newGossipEmitted:count 0
scalar Network.nodes[248] missingRequested:count 0
scalar Network.nodes[248] newGossipReceived:count 824
scalar Network.nodes[248] newGossipEmitted:count 0
scalar Network.nodes[249] missingRequested:count 777
scalar Network.nodes[249] newGossipReceived:count 823
scalar Network.nodes[249] newGossipEmitted:count 1
scalar Network.nodes[250] missingRequested:count 992
scalar Network.nodes[250] newGossipReceived:count 824
scalar Network.nodes[250] newGossipEmitted:count 0
scalar Network.nodes[251] missingRequested:count 0
scalar Network.nodes[251] newGossipReceived:count 823
scalar Network.nodes[251] newGossipEmitted:count 1
scalar Network.nodes[252] missingRequested:count 970
scalar Network.nodes[252] newGossipReceived:count 824
scalar Network.nodes[252] newGossipEmitted:count 1
scalar Network.nodes[253] missingRequested:count 902
scalar Network.nodes[253] newGossipReceived:count 824
scalar Network.nodes[253] newGossipEmitted:count 0
scalar Network.nodes[254] missingRequested:count 1000
scalar Network.nodes[254] newGossipReceived:count 823
scalar Network.nodes[254] newGossipEmitted:count 1
scalar Network.nodes[255] missingRequested:count 942
scalar Network.nodes[255] newGossipReceived:count 824
scalar Network.nodes[255] newGossipEmitted:count 0
scalar Network.nodes[256] missingRequested:count 882
scalar Network.nodes[256] newGossipReceived:count 824
scalar Network.nodes[256] newGossipEmitted:count 0
scalar Network.nodes[257] missingRequested:count 1121
scalar Network.nodes[257] newGossipReceived:count 823
scalar Network.nodes[257] newGossipEmitted:count 1
scalar Network.nodes[258] missingRequested:count 1081
scalar Network.nodes[258] newGossipReceived:count 823
scalar Network.nodes[258] newGossipEmitted:count 1
scalar Network.nodes[259] missingRequested:count 823
scalar Network.nodes[259] newGossipReceived:count 823
scalar Network.nodes[259] newGossipEmitted:count 1
scalar Network.nodes[260] missingRequested:count 967
scalar Network.nodes[260] newGossipReceived:count 824
scalar Network.nodes[260] newGossipEmitted:count 0
scalar Network.nodes[261] missingRequested:count 0
scalar Network.nodes[261] newGossipReceived:count 824
scalar Network.nodes[261] newGossipEmitted:count 0
scalar Network.nodes[262] missingRequested:count 906
scalar Network.nodes[262] newGossipReceived:count 824
scalar Network.nodes[262] newGossipEmitted:count 0
scalar Network.nodes[263] missingRequested:count 983
scalar Network.nodes[263] newGossipReceived:count 824
scalar Network.nodes[263] newGossipEmitted:count 0
scalar Network.nodes[264] missingRequested:count 987
scalar Network.nodes[264] newGossipReceived:count 824
scalar Network.nodes[264] newGossipEmitted:count 0
scalar Network.nodes[265] missingRequested:count 953
scalar Network.nodes[265] newGossipReceived:count 823
scalar Network.nodes[265] newGossipEmitted:count 1
scalar Network.nodes[266] missingRequested:count 852
scalar Network.nodes[266] newGossipReceived:count 823
scalar Network.nodes[266] newGossipEmitted:count 1
scalar Network.nodes[267] missingRequested:count 930
scalar Network.nodes[267] newGossipReceived:count 824
scalar Network.nodes[267] newGossipEmitted:count 0
scalar Network.nodes[268] missingRequested:count 0
scalar Network.nodes[268] newGossipReceived:count 823
scalar Network.nodes[268] newGossipEmitted:count 1
scalar Network.nodes[269] missingRequested:count 1219
scalar Network.nodes[269] newGossipReceived:count 823
scalar Network.nodes[269] newGossipEmitted:count 1
scalar Network.nodes[270] missingRequested:count 823
scalar Network.nodes[270] newGossipReceived:count 824
scalar Network.nodes[270] newGossipEmitted:count 0
scalar Network.nodes[271] missingRequested:count 1039
scalar Network.nodes[271] newGossipReceived:count 823
scalar Network.nodes[271] newGossipEmitted:count 1
scalar Network.nodes[272] missingRequested:count 1006
scalar Network.nodes[272] newGossipReceived:count 823
scalar Network.nodes[272] newGossipEmitted:count 1
scalar Network.nodes[273] missingRequested:count 883
scalar Network.nodes[273] newGossipReceived:count 824
scalar Network.nodes[273] newGossipEmitted:count 0
scalar Network.nodes[274] missingRequested:count 960
scalar Network.nodes[274] newGossipReceived:count 823
scalar Network.nodes[274] newGossipEmitted:count 1
scalar Network.nodes[275] missingRequested:count 1073
scalar Network.nodes[275] newGossipReceived:count 823
scalar Network.nodes[275] newGossipEmitted:count 1
scalar Network.nodes[276] missingRequested:count 824
scalar Network.nodes[276] newGossipReceived:count 824
scalar Network.nodes[276] newGossipEmitted:count 0
scalar Network.nodes[277] missingRequested:count 823
scalar Network.nodes[277] newGossipReceived:count 824
scalar Network.nodes[277] newGossipEmitted:count 0
scalar Network.nodes[278] missingRequested:count 0
scalar Network.nodes[278] newGossipReceived:count 823
scalar Network.nodes[278] newGossipEmitted:count 1
scalar Network.nodes[279] missingRequested:count 823
scalar Network.nodes[279] newGossipReceived:count 823
scalar Network.nodes[279] newGossipEmitted:count 1
scalar Network.nodes[280] missingRequested:count 948
scalar Network.nodes[280] newGossipReceived:count 824
scalar Network.nodes[280] newGossipEmitted:count 0
scalar Network.nodes[281] missingRequested:count 958
scalar Network.nodes[281] newGossipReceived:count 824
scalar Network.nodes[281] newGossipEmitted:count 0
scalar Network.nodes[282] missingRequested:count 1103
scalar Network.nodes[282] newGossipReceived:count 824
scalar Network.nodes[282] newGossipEmitted:count 0
scalar Network.nodes[283] missingRequested:count 823
scalar Network.nodes[283] newGossipReceived:count 823
scalar Network.nodes[283] newGossipEmitted:count 1
scalar Network.nodes[284] missingRequested:count 978
scalar Network.nodes[284] newGossipReceived:count 823
scalar Network.nodes[284] newGossipEmitted:count 1
scalar Network.nodes[285] missingRequested:count 1081
scalar Network.nodes[285] newGossipReceived:count 823
scalar Network.nodes[285] newGossipEmitted:count 1
scalar Network.nodes[286] missingRequested:count 0
scalar Network.nodes[286] newGossipReceived:count 823
scalar Network.nodes[286] newGossipEmitted:count 1
scalar Network.nodes[287] missingRequested:count 860
scalar Network.nodes[287] newGossipReceived:count 824
scalar Network.nodes[287] newGossipEmitted:count 0
scalar Network.nodes[288] missingRequested:count 942
scalar Network.nodes[288] newGossipReceived:count 823
scalar Network.nodes[288] newGossipEmitted:count 1
scalar Network.nodes[289] missingRequested:count 823
scalar Network.nodes[289] newGossipReceived:count 823
scalar Network.nodes[289] newGossipEmitted:count 1
scalar Network.nodes[290] missingRequested:count 1084
scalar Network.nodes[290] newGossipReceived:count 822
scalar Network.nodes[290] newGossipEmitted:count 2
scalar Network.nodes[291] missingRequested:count 995
scalar Network.nodes[291] newGossipReceived:count 823
scalar Network.nodes[291] newGossipEmitted:count 1
scalar Network.nodes[292] missingRequested:count 153
scalar Network.nodes[292] newGossipReceived:count 823
scalar Network.nodes[292] newGossipEmitted:count 1
scalar Network.nodes[293] missingRequested:count 1171
scalar Network.nodes[293] newGossipReceived:count 824
scalar Network.nodes[293] newGossipEmitted:count 0
scalar Network.nodes[294] missingRequested:count 1003
scalar Network.nodes[294] newGossipReceived:count 823
scalar Network.nodes[294] newGossipEmitted:count 1
scalar Network.nodes[295] missingRequested:count 823
scalar Network.nodes[295] newGossipReceived:count 824
scalar Network.nodes[295] newGossipEmitted:count 0
scalar Network.nodes[296] missingRequested:count 823
scalar Network.nodes[296] newGossipReceived:count 823
scalar Network.nodes[296] newGossipEmitted:count 1
scalar Network.nodes[297] missingRequested:count 918
scalar Network.nodes[297] newGossipReceived:count 824
scalar Network.nodes[297] newGossipEmitted:count 0
scalar Network.nodes[298] missingRequested:count 0
scalar Network.nodes[298] newGossipReceived:count 824
scalar Network.nodes[298] newGossipEmitted:count 0
scalar Network.nodes[299] missingRequested:count 823
scalar Network.nodes[299] newGossipReceived:count 823
scalar Network.nodes[299] newGossipEmitted:count 1
scalar Network.nodes[300] missingRequested:count 903
scalar Network.nodes[300] newGossipReceived:count 823
scalar Network.nodes[300] newGossipEmitted:count 1
scalar Network.nodes[301] missingRequested:count 1098
scalar Network.nodes[301] newGossipReceived:count 823
scalar Network.nodes[301] newGossipEmitted:count 1
scalar Network.nodes[302] missingRequested:count 996
scalar Network.nodes[302] newGossipReceived:count 823
scalar Network.nodes[302] newGossipEmitted:count 1
scalar Network.nodes[303] missingRequested:count 929
scalar Network.nodes[303] newGossipReceived:count 823
scalar Network.nodes[303] newGossipEmitted:count 1
scalar Network.nodes[304] missingRequested:count 1166
scalar Network.nodes[304] newGossipReceived:count 823
scalar Network.nodes[304] newGossipEmitted:count 1
scalar Network.nodes[305] missingRequested:count 1020
scalar Network.nodes[305] newGossipReceived:count 824
scalar Network.nodes[305] newGossipEmitted:count 0
scalar Network.nodes[306] missingRequested:count 823
scalar Network.nodes[306] newGossipReceived:count 823
scalar Network.nodes[306] newGossipEmitted:count 1
scalar Network.nodes[307] missingRequested:count 1060
scalar Network.nodes[307] newGossipReceived:count 823
scalar Network.nodes[307] newGossipEmitted:count 1
scalar Network.nodes[308] missingRequested:count 829
scalar Network.nodes[308] newGossipReceived:count 824
scalar Network.nodes[308] newGossipEmitted:count 0
scalar Network.nodes[309] missingRequested:count 1003
scalar Network.nodes[309] newGossipReceived:count 823
scalar Network.nodes[309] newGossipEmitted:count 1
scalar Network.nodes[310] missingRequested:count 979
scalar Network.nodes[310] newGossipReceived:count 823
scalar Network.nodes[310] newGossipEmitted:count 1
scalar Network.nodes[311] missingRequested:count 990
scalar Network.nodes[311] newGossipReceived:count 824
scalar Network.nodes[311] newGossipEmitted:count 0
scalar Network.nodes[312] missingRequested:count 0
scalar Network.nodes[312] newGossipReceived:count 824
scalar Network.nodes[312] newGossipEmitted:count 0
scalar Network.nodes[313] missingRequested:count 823
scalar Network.nodes[313] newGossipReceived:count 823
scalar Network.nodes[313] newGossipEmitted:count 1
scalar Network.nodes[314] missingRequested:count 939
scalar Network.nodes[314] newGossipReceived:count 823
scalar Network.nodes[314] newGossipEmitted:count 1
scalar Network.nodes[315] missingRequested:count 1022
scalar Network.nodes[315] newGossipReceived:count 823
scalar Network.nodes[315] newGossipEmitted:count 1
scalar Network.nodes[316] missingRequested:count 975
scalar Network.nodes[316] newGossipReceived:count 823
scalar Network.nodes[316] newGossipEmitted:count 1
scalar Network.nodes[317] missingRequested:count 875
scalar Network.nodes[317] newGossipReceived:count 824
scalar Network.nodes[317] newGossipEmitted:count 0
scalar Network.nodes[318] missingRequested:count 823
scalar Network.nodes[318] newGossipReceived:count 823
scalar Network.nodes[318] newGossipEmitted:count 1
scalar Network.nodes[319] missingRequested:count 967
scalar Network.nodes[319] newGossipReceived:count 823
scalar Network.nodes[319] newGossipEmitted:count 1
scalar Network.nodes[320] missingRequested:count 1005
scalar Network.nodes[320] newGossipReceived:count 823
scalar Network.nodes[320] newGossipEmitted:count 1
scalar Network.nodes[321] missingRequested:count 823
scalar Network.nodes[321] newGossipReceived:count 824
scalar Network.nodes[321] newGossipEmitted:count 0
scalar Network.nodes[322] missingRequested:count 1153
scalar Network.nodes[322] newGossipReceived:count 823
scalar Network.nodes[322] newGossipEmitted:count 1
scalar Network.nodes[323] missingRequested:count 1173
scalar Network.nodes[323] newGossipReceived:count 823
scalar Network.nodes[323] newGossipEmitted:count 1
scalar Network.nodes[324] missingRequested:count 896
scalar Network.nodes[324] newGossipReceived:count 824
scalar Network.nodes[324] newGossipEmitted:count 0
scalar Network.nodes[325] missingRequested:count 1012
scalar Network.nodes[325] newGossipReceived:count 823
scalar Network.nodes[325] newGossipEmitted:count 1
scalar Network.nodes[326] missingRequested:count 1068
scalar Network.nodes[326] newGossipReceived:count 823
scalar Network.nodes[326] newGossipEmitted:count 1
scalar Network.nodes[327] missingRequested:count 823
scalar Network.nodes[327] newGossipReceived:count 824
scalar Network.nodes[327] newGossipEmitted:count 0
scalar Network.nodes[328] missingRequested:count 0
scalar Network.nodes[328] newGossipReceived:count 823
scalar Network.nodes[328] newGossipEmitted:count 1
scalar Network.nodes[329] missingRequested:count 984
scalar Network.nodes[329] newGossipReceived:count 823
scalar Network.nodes[329] newGossipEmitted:count 1
scalar Network.nodes[330] missingRequested:count 857
scalar Network.nodes[330] newGossipReceived:count 824
scalar Network.nodes[330] newGossipEmitted:count 0
scalar Network.nodes[331] missingRequested:count 1185
scalar Network.nodes[331] newGossipReceived:count 823
scalar Network.nodes[331] newGossipEmitted:count 1
scalar Network.nodes[332] missingRequested:count 948
scalar Network.nodes[332] newGossipReceived:count 825
scalar Network.nodes[332] newGossipEmitted:count 0
scalar Network.nodes[333] missingRequested:count 959
scalar Network.nodes[333] newGossipReceived:count 823
scalar Network.nodes[333] newGossipEmitted:count 1
scalar Network.nodes[334] missingRequested:count 916
scalar Network.nodes[334] newGossipReceived:count 824
scalar Network.nodes[334] newGossipEmitted:count 0
scalar Network.nodes[335] missingRequested:count 1002
scalar Network.nodes[335] newGossipReceived:count 823
scalar Network.nodes[335] newGossipEmitted:count 1
scalar Network.nodes[336] missingRequested:count 838
scalar Network.nodes[336] newGossipReceived:count 823
scalar Network.nodes[336] newGossipEmitted:count 1
scalar Network.nodes[337] missingRequested:count 1208
scalar Network.nodes[337] newGossipReceived:count 823
scalar Network.nodes[337] newGossipEmitted:count 1
scalar Network.nodes[338] missingRequested:count 0
scalar Network.nodes[338] newGossipReceived:count 823
scalar Network.nodes[338] newGossipEmitted:count 1
scalar Network.nodes[339] missingRequested:count 823
scalar Network.nodes[339] newGossipReceived:count 823
scalar Network.nodes[339] newGossipEmitted:count 1
scalar Network.nodes[340] missingRequested:count 823
scalar Network.nodes[340] newGossipReceived:count 824
scalar Network.nodes[340] newGossipEmitted:count 0
scalar Network.nodes[341] missingRequested:count 1090
scalar Network.nodes[341] newGossipReceived:count 824
scalar Network.nodes[341] newGossipEmitted:count 0
scalar Network.nodes[342] missingRequested:count 1003
scalar Network.nodes[342] newGossipReceived:count 823
scalar Network.nodes[342] newGossipEmitted:count 1
scalar Network.nodes[343] missingRequested:count 998
scalar Network.nodes[343] newGossipReceived:count 823
scalar Network.nodes[343] newGossipEmitted:count 1
scalar Network.nodes[344] missingRequested:count 0
scalar Network.nodes[344] newGossipReceived:count 823
scalar Network.nodes[344] newGossipEmitted:count 1
scalar Network.nodes[345] missingRequested:count 987
scalar Network.nodes[345] newGossipReceived:count 823
scalar Network.nodes[345] newGossipEmitted:count 1
scalar Network.nodes[346] missingRequested:count 1021
scalar Network.nodes[346] newGossipReceived:count 823
scalar Network.nodes[346] newGossipEmitted:count 1
scalar Network.nodes[347] missingRequested:count 1068
scalar Network.nodes[347] newGossipReceived:count 823
scalar Network.nodes[347] newGossipEmitted:count 1
scalar Network.nodes[348] missingRequested:count 953
scalar Network.nodes[348] newGossipReceived:count 824
scalar Network.nodes[348] newGossipEmitted:count 0
scalar Network.nodes[349] missingRequested:count 943
scalar Network.nodes[349] newGossipReceived:count 824
scalar Network.nodes[349] newGossipEmitted:count 0
scalar Network.nodes[350] missingRequested:count 823
scalar Network.nodes[350] newGossipReceived:count 823
scalar Network.nodes[350] newGossipEmitted:count 1
scalar Network.nodes[351] missingRequested:count 972
scalar Network.nodes[351] newGossipReceived:count 823
scalar Network.nodes[351] newGossipEmitted:count 1
scalar Network.nodes[352] missingRequested:count 849
scalar Network.nodes[352] newGossipReceived:count 824
scalar Network.nodes[352] newGossipEmitted:count 0
scalar Network.nodes[353] missingRequested:count 1095
scalar Network.nodes[353] newGossipReceived:count 824
scalar Network.nodes[353] newGossipEmitted:count 0
scalar Network.nodes[354] missingRequested:count 0
scalar Network.nodes[354] newGossipReceived:count 823
scalar Network.nodes[354] newGossipEmitted:count 1
scalar Network.nodes[355] missingRequested:count 823
scalar Network.nodes[355] newGossipReceived:count 824
scalar Network.nodes[355] newGossipEmitted:count 0
scalar Network.nodes[356] missingRequested:count 0
scalar Network.nodes[356] newGossipReceived:count 824
scalar Network.nodes[356] newGossipEmitted:count 0
scalar Network.nodes[357] missingRequested:count 823
scalar Network.nodes[357] newGossipReceived:count 824
scalar Network.nodes[357] newGossipEmitted:count 0
scalar Network.nodes[358] missingRequested:count 0
scalar Network.nodes[358] newGossipReceived:count 824
scalar Network.nodes[358] newGossipEmitted:count 0
scalar Network.nodes[359] missingRequested:count 823
scalar Network.nodes[359] newGossipReceived:count 824
scalar Network.nodes[359] newGossipEmitted:count 0
scalar Network.nodes[360] missingRequested:count 1021
scalar Network.nodes[360] newGossipReceived:count 823
scalar Network.nodes[360] newGossipEmitted:count 1
scalar Network.nodes[361] missingRequested:count 993
scalar Network.nodes[361] newGossipReceived:count 823
scalar Network.nodes[361] newGossipEmitted:count 1
scalar Network.nodes[362] missingRequested:count 1001
scalar Network.nodes[362] newGossipReceived:count 823
scalar Network.nodes[362] newGossipEmitted:count 1
scalar Network.nodes[363] missingRequested:count 0
scalar Network.nodes[363] newGossipReceived:count 824
scalar Network.nodes[363] newGossipEmitted:count 0
scalar Network.nodes[364] missingRequested:count 1145
scalar Network.nodes[364] newGossipReceived:count 824
scalar Network.nodes[364] newGossipEmitted:count 0
scalar Network.nodes[365] missingRequested:count 1042
scalar Network.nodes[365] newGossipReceived:count 823
scalar Network.nodes[365] newGossipEmitted:count 1
scalar Network.nodes[366] missingRequested:count 507
scalar Network.nodes[366] newGossipReceived:count 823
scalar Network.nodes[366] newGossipEmitted:count 1
scalar Network.nodes[367] missingRequested:count 871
scalar Network.nodes[367] newGossipReceived:count 824
scalar Network.nodes[367] newGossipEmitted:count 0
scalar Network.nodes[368] missingRequested:count 880
scalar Network.nodes[368] newGossipReceived:count 823
scalar Network.nodes[368] newGossipEmitted:count 1
scalar Network.nodes[369] missingRequested:count 943
scalar Network.nodes[369] newGossipReceived:count 824
scalar Network.nodes[369] newGossipEmitted:count 0
scalar Network.nodes[370] missingRequested:count 1029
scalar Network.nodes[370] newGossipReceived:count 824
scalar Network.nodes[370] newGossipEmitted:count 0
scalar Network.nodes[371] missingRequested:count 898
scalar Network.nodes[371] newGossipReceived:count 824
scalar Network.nodes[371] newGossipEmitted:count 0
scalar Network.nodes[372] missingRequested:count 969
scalar Network.nodes[372] newGossipReceived:count 823
scalar Network.nodes[372] newGossipEmitted:count 1
scalar Network.nodes[373] missingRequested:count 926
scalar Network.nodes[373] newGossipReceived:count 823
scalar Network.nodes[373] newGossipEmitted:count 1
scalar Network.nodes[374] missingRequested:count 0
scalar Network.nodes[374] newGossipReceived:count 824
scalar Network.nodes[374] newGossipEmitted:count 0
scalar Network.nodes[375] missingRequested:count 850
scalar Network.nodes[375] newGossipReceived:count 824
scalar Network.nodes[375] newGossipEmitted:count 0
scalar Network.nodes[376] missingRequested:count 901
scalar Network.nodes[376] newGossipReceived:count 823
scalar Network.nodes[376] newGossipEmitted:count 1
scalar Network.nodes[377] missingRequested:count 1017
scalar Network.nodes[377] newGossipReceived:count 824
scalar Network.nodes[377] newGossipEmitted:count 0
scalar Network.nodes[378] missingRequested:count 0
scalar Network.nodes[378] newGossipReceived:count 823
scalar Network.nodes[378] newGossipEmitted:count 1
scalar Network.nodes[379] missingRequested:count 965
scalar Network.nodes[379] newGossipReceived:count 823
scalar Network.nodes[379] newGossipEmitted:count 1
scalar Network.nodes[380] missingRequested:count 827
scalar Network.nodes[380] newGossipReceived:count 824
scalar Network.nodes[380] newGossipEmitted:count 0
scalar Network.nodes[381] missingRequested:count 951
scalar Network.nodes[381] newGossipReceived:count 823
scalar Network.nodes[381] newGossipEmitted:count 1
scalar Network.nodes[382] missingRequested:count 1104
scalar Network.nodes[382] newGossipReceived:count 824
scalar Network.nodes[382] newGossipEmitted:count 0
scalar Network.nodes[383] missingRequested:count 1045
scalar Network.nodes[383] newGossipReceived:count 823
scalar Network.nodes[383] newGossipEmitted:count 1
scalar Network.nodes[384] missingRequested:count 879
scalar Network.nodes[384] newGossipReceived:count 823
scalar Network.nodes[384] newGossipEmitted:count 1
scalar Network.nodes[385] missingRequested:count 0
scalar Network.nodes[385] newGossipReceived:count 822
scalar Network.nodes[385] newGossipEmitted:count 2
scalar Network.nodes[386] missingRequested:count 1099
scalar Network.nodes[386] newGossipReceived:count 823
scalar Network.nodes[386] newGossipEmitted:count 1
scalar Network.nodes[387] missingRequested:count 0
scalar Network.nodes[387] newGossipReceived:count 824
scalar Network.nodes[387] newGossipEmitted:count 0
scalar Network.nodes[388] missingRequested:count 839
scalar Network.nodes[388] newGossipReceived:count 823
scalar Network.nodes[388] newGossipEmitted:count 1
scalar Network.nodes[389] missingRequested:count 976
scalar Network.nodes[389] newGossipReceived:count 823
scalar Network.nodes[389] newGossipEmitted:count 1
scalar Network.nodes[390] missingRequested:count 865
scalar Network.nodes[390] newGossipReceived:count 823
scalar Network.nodes[390] newGossipEmitted:count 1
scalar Network.nodes[391] missingRequested:count 1074
scalar Network.nodes[391] newGossipReceived:count 824
scalar Network.nodes[391] newGossipEmitted:count 0
scalar Network.nodes[392] missingRequested:count 1142
scalar Network.nodes[392] newGossipReceived:count 823
scalar Network.nodes[392] newGossipEmitted:count 1
scalar Network.nodes[393] missingRequested:count 0
scalar Network.nodes[393] newGossipReceived:count 824
scalar Network.nodes[393] newGossipEmitted:count 0
scalar Network.nodes[394] missingRequested:count 823
scalar Network.nodes[394] newGossipReceived:count 823
scalar Network.nodes[394] newGossipEmitted:count 1
scalar Network.nodes[395] missingRequested:count 823
scalar Network.nodes[395] newGossipReceived:count 823
scalar Network.nodes[395] newGossipEmitted:count 1
scalar Network.nodes[396] missingRequested:count 823
scalar Network.nodes[396] newGossipReceived:count 823
scalar Network.nodes[396] newGossipEmitted:count 1
scalar Network.nodes[397] missingRequested:count 0
scalar Network.nodes[397] newGossipReceived:count 824
scalar Network.nodes[397] newGossipEmitted:count 0
scalar Network.nodes[398] missingRequested:count 830
scalar Network.nodes[398] newGossipReceived:count 822
scalar Network.nodes[398] newGossipEmitted:count 2
scalar Network.nodes[399] missingRequested:count 1014
scalar Network.nodes[399] newGossipReceived:count 822
scalar Network.nodes[399] newGossipEmitted:count 2
scalar Network.nodes[400] missingRequested:count 1000
scalar Network.nodes[400] newGossipReceived:count 822
scalar Network.nodes[400] newGossipEmitted:count 2
scalar Network.nodes[401] missingRequested:count 0
scalar Network.nodes[401] newGossipReceived:count 824
scalar Network.nodes[401] newGossipEmitted:count 0
scalar Network.nodes[402] missingRequested:count 863
scalar Network.nodes[402] newGossipReceived:count 823
scalar Network.nodes[402] newGossipEmitted:count 1
scalar Network.nodes[403] missingRequested:count 897
scalar Network.nodes[403] newGossipReceived:count 824
scalar Network.nodes[403] newGossipEmitted:count 0
scalar Network.nodes[404] missingRequested:count 1127
scalar Network.nodes[404] newGossipReceived:count 823
scalar Network.nodes[404] newGossipEmitted:count 1
scalar Network.nodes[405] missingRequested:count 865
scalar Network.nodes[405] newGossipReceived:count 824
scalar Network.nodes[405] newGossipEmitted:count 0
scalar Network.nodes[406] missingRequested:count 1017
scalar Network.nodes[406] newGossipReceived:count 824
scalar Network.nodes[406] newGossipEmitted:count 0
scalar Network.nodes[407] missingRequested:count 0
scalar Network.nodes[407] newGossipReceived:count 823
scalar Network.nodes[407] newGossipEmitted:count 1
scalar Network.nodes[408] missingRequested:count 0
scalar Network.nodes[408] newGossipReceived:count 823
scalar Network.nodes[408] newGossipEmitted:count 1
scalar Network.nodes[409] missingRequested:count 926
scalar Network.nodes[409] newGossipReceived:count 823
scalar Network.nodes[409] newGossipEmitted:count 1
scalar Network.nodes[410] missingRequested:count 0
scalar Network.nodes[410] newGossipReceived:count 824
scalar Network.nodes[410] newGossipEmitted:count 0
scalar Network.nodes[411] missingRequested:count 823
scalar Network.nodes[411] newGossipReceived:count 823
scalar Network.nodes[411] newGossipEmitted:count 1
scalar Network.nodes[412] missingRequested:count 823
scalar Network.nodes[412] newGossipReceived:count 824
scalar Network.nodes[412] newGossipEmitted:count 0
scalar Network.nodes[413] missingRequested:count 0
scalar Network.nodes[413] newGossipReceived:count 824
scalar Network.nodes[413] newGossipEmitted:count 0
scalar Network.nodes[414] missingRequested:count 989
scalar Network.nodes[414] newGossipReceived:count 824
scalar Network.nodes[414] newGossipEmitted:count 0
scalar Network.nodes[415] missingRequested:count 950
scalar Network.nodes[415] newGossipReceived:count 823
scalar Network.nodes[415] newGossipEmitted:count 1
scalar Network.nodes[416] missingRequested:count 1262
scalar Network.nodes[416] newGossipReceived:count 824
scalar Network.nodes[416] newGossipEmitted:count 0
scalar Network.nodes[417] missingRequested:count 1017
scalar Network.nodes[417] newGossipReceived:count 823
scalar Network.nodes[417] newGossipEmitted:count 1
scalar Network.nodes[418] missingRequested:count 1305
scalar Network.nodes[418] newGossipReceived:count 824
scalar Network.nodes[418] newGossipEmitted:count 0
scalar Network.nodes[419] missingRequested:count 955
scalar Network.nodes[419] newGossipReceived:count 823
scalar Network.nodes[419] newGossipEmitted:count 1
scalar Network.nodes[420] missingRequested:count 995
scalar Network.nodes[420] newGossipReceived:count 823
scalar Network.nodes[420] newGossipEmitted:count 1
scalar Network.nodes[421] missingRequested:count 939
scalar Network.nodes[421] newGossipReceived:count 823
scalar Network.nodes[421] newGossipEmitted:count 1
scalar Network.nodes[422] missingRequested:count 1044
scalar Network.nodes[422] newGossipReceived:count 823
scalar Network.nodes[422] newGossipEmitted:count 1
scalar Network.nodes[423] missingRequested:count 823
scalar Network.nodes[423] newGossipReceived:count 824
scalar Network.nodes[423] newGossipEmitted:count 0
scalar Network.nodes[424] missingRequested:count 823
scalar Network.nodes[424] newGossipReceived:count 823
scalar Network.nodes[424] newGossipEmitted:count 1
scalar Network.nodes[425] missingRequested:count 954
scalar Network.nodes[425] newGossipReceived:count 824
scalar Network.nodes[425] newGossipEmitted:count 0
scalar Network.nodes[426] missingRequested:count 823
scalar Network.nodes[426] newGossipReceived:count 823
scalar Network.nodes[426] newGossipEmitted:count 1
scalar Network.nodes[427] missingRequested:count 892
scalar Network.nodes[427] newGossipReceived:count 824
scalar Network.nodes[427] newGossipEmitted:count 0
scalar Network.nodes[428] missingRequested:count 0
scalar Network.nodes[428] newGossipReceived:count 824
scalar Network.nodes[428] newGossipEmitted:count 0
scalar Network.nodes[429] missingRequested:count 1082
scalar Network.nodes[429] newGossipReceived:count 823
scalar Network.nodes[429] newGossipEmitted:count 1
scalar Network.nodes[430] missingRequested:count 1014
scalar Network.nodes[430] newGossipReceived:count 824
scalar Network.nodes[430] newGossipEmitted:count 0
scalar Network.nodes[431] missingRequested:count 1007
scalar Network.nodes[431] newGossipReceived:count 824
scalar Network.nodes[431] newGossipEmitted:count 0
scalar Network.nodes[432] missingRequested:count 1100
scalar Network.nodes[432] newGossipReceived:count 823
scalar Network.nodes[432] newGossipEmitted:count 1
scalar Network.nodes[433] missingRequested:count 969
scalar Network.nodes[433] newGossipReceived:count 823
scalar Network.nodes[433] newGossipEmitted:count 1
scalar Network.nodes[434] missingRequested:count 856
scalar Network.nodes[434] newGossipReceived:count 824
scalar Network.nodes[434] newGossipEmitted:count 0
scalar Network.nodes[435] missingRequested:count 1024
scalar Network.nodes[435] newGossipReceived:count 824
scalar Network.nodes[435] newGossipEmitted:count 0
scalar Network.nodes[436] missingRequested:count 972
scalar Network.nodes[436] newGossipReceived:count 823
scalar Network.nodes[436] newGossipEmitted:count 1
scalar Network.nodes[437] missingRequested:count 898
scalar Network.nodes[437] newGossipReceived:count 824
scalar Network.nodes[437] newGossipEmitted:count 0
scalar Network.nodes[438] missingRequested:count 823
scalar Network.nodes[438] newGossipReceived:count 823
scalar Network.nodes[438] newGossipEmitted:count 1
scalar Network.nodes[439] missingRequested:count 948
scalar Network.nodes[439] newGossipReceived:count 823
scalar Network.nodes[439] newGossipEmitted:count 1
scalar Network.nodes[440] missingRequested:count 905
scalar Network.nodes[440] newGossipReceived:count 824
scalar Network.nodes[440] newGossipEmitted:count 0
scalar Network.nodes[441] missingRequested:count 0
scalar Network.nodes[441] newGossipReceived:count 823
scalar Network.nodes[441] newGossipEmitted:count 1
scalar Network.nodes[442] missingRequested:count 928
scalar Network.nodes[442] newGossipReceived:count 823
scalar Network.nodes[442] newGossipEmitted:count 1
scalar Network.nodes[443] missingRequested:count 1024
scalar Network.nodes[443] newGossipReceived:count 823
scalar Network.nodes[443] newGossipEmitted:count 1
scalar Network.nodes[444] missingRequested:count 970
scalar Network.nodes[444] newGossipReceived:count 824
scalar Network.nodes[444] newGossipEmitted:count 0
scalar Network.nodes[445] missingRequested:count 1008
scalar Network.nodes[445] newGossipReceived:count 823
scalar Network.nodes[445] newGossipEmitted:count 1
scalar Network.nodes[446] missingRequested:count 0
scalar Network.nodes[446] newGossipReceived:count 824
scalar Network.nodes[446] newGossipEmitted:count 0
scalar Network.nodes[447] missingRequested:count 963
scalar Network.nodes[447] newGossipReceived:count 823
scalar Network.nodes[447] newGossipEmitted:count 1
scalar Network.nodes[448] missingRequested:count 1035
scalar Network.nodes[448] newGossipReceived:count 824
scalar Network.nodes[448] newGossipEmitted:count 0
scalar Network.nodes[449] missingRequested:count 0
scalar Network.nodes[449] newGossipReceived:count 823
scalar Network.nodes[449] newGossipEmitted:count 1
scalar Network.nodes[450] missingRequested:count 995
scalar Network.nodes[450] newGossipReceived:count 823
scalar Network.nodes[450] newGossipEmitted:count 1
scalar Network.nodes[451] missingRequested:count 846
scalar Network.nodes[451] newGossipReceived:count 823
scalar Network.nodes[451] newGossipEmitted:count 1
scalar Network.nodes[452] missingRequested:count 1013
scalar Network.nodes[452] newGossipReceived:count 824
scalar Network.nodes[452] newGossipEmitted:count 0
scalar Network.nodes[453] missingRequested:count 1014
scalar Network.nodes[453] newGossipReceived:count 824
scalar Network.nodes[453] newGossipEmitted:count 0
scalar Network.nodes[454] missingRequested:count 952
scalar Network.nodes[454] newGossipReceived:count 824
scalar Network.nodes[454] newGossipEmitted:count 0
scalar Network.nodes[455] missingRequested:count 823
scalar Network.nodes[455] newGossipReceived:count 823
scalar Network.nodes[455] newGossipEmitted:count 1
scalar Network.nodes[456] missingRequested:count 0
scalar Network.nodes[456] newGossipReceived:count 824
scalar Network.nodes[456] newGossipEmitted:count 0
scalar Network.nodes[457] missingRequested:count 874
scalar Network.nodes[457] newGossipReceived:count 824
scalar Network.nodes[457] newGossipEmitted:count 0
scalar Network.nodes[458] missingRequested:count 923
scalar Network.nodes[458] newGossipReceived:count 823
scalar Network.nodes[458] newGossipEmitted:count 1
scalar Network.nodes[459] missingRequested:count 823
scalar Network.nodes[459] newGossipReceived:count 823
scalar Network.nodes[459] newGossipEmitted:count 1
scalar Network.nodes[460] missingRequested:count 872
scalar Network.nodes[460] newGossipReceived:count 823
scalar Network.nodes[460] newGossipEmitted:count 1
scalar Network.nodes[461] missingRequested:count 823
scalar Network.nodes[461] newGossipReceived:count 824
scalar Network.nodes[461] newGossipEmitted:count 0
scalar Network.nodes[462] missingRequested:count 863
scalar Network.nodes[462] newGossipReceived:count 824
scalar Network.nodes[462] newGossipEmitted:count 0
scalar Network.nodes[463] missingRequested:count 922
scalar Network.nodes[463] newGossipReceived:count 824
scalar Network.nodes[463] newGossipEmitted:count 0
scalar Network.nodes[464] missingRequested:count 823
scalar Network.nodes[464] newGossipReceived:count 824
scalar Network.nodes[464] newGossipEmitted:count 0
scalar Network.nodes[465] missingRequested:count 1076
scalar Network.nodes[465] newGossipReceived:count 823
scalar Network.nodes[465] newGossipEmitted:count 1
scalar Network.nodes[466] missingRequested:count 999
scalar Network.nodes[466] newGossipReceived:count 823
scalar Network.nodes[466] newGossipEmitted:count 1
scalar Network.nodes[467] missingRequested:count 823
scalar Network.nodes[467] newGossipReceived:count 823
scalar Network.nodes[467] newGossipEmitted:count 1
scalar Network.nodes[468] missingRequested:count 0
scalar Network.nodes[468] newGossipReceived:count 824
scalar Network.nodes[468] newGossipEmitted:count 0
scalar Network.nodes[469] missingRequested:count 0
scalar Network.nodes[469] newGossipReceived:count 824
scalar Network.nodes[469] newGossipEmitted:count 0
scalar Network.nodes[470] missingRequested:count 849
scalar Network.nodes[470] newGossipReceived:count 822
scalar Network.nodes[470] newGossipEmitted:count 2
scalar Network.nodes[471] missingRequested:count 0
scalar Network.nodes[471] newGossipReceived:count 823
scalar Network.nodes[471] newGossipEmitted:count 1
scalar Network.nodes[472] missingRequested:count 1002
scalar Network.nodes[472] newGossipReceived:count 824
scalar Network.nodes[472] newGossipEmitted:count 0
scalar Network.nodes[473] missingRequested:count 1063
scalar Network.nodes[473] newGossipReceived:count 822
scalar Network.nodes[473] newGossipEmitted:count 2
scalar Network.nodes[474] missingRequested:count 955
scalar Network.nodes[474] newGossipReceived:count 823
scalar Network.nodes[474] newGossipEmitted:count 1
scalar Network.nodes[475] missingRequested:count 1023
scalar Network.nodes[475] newGossipReceived:count 823
scalar Network.nodes[475] newGossipEmitted:count 1
scalar Network.nodes[476] missingRequested:count 1009
scalar Network.nodes[476] newGossipReceived:count 824
scalar Network.nodes[476] newGossipEmitted:count 0
scalar Network.nodes[477] missingRequested:count 1039
scalar Network.nodes[477] newGossipReceived:count 823
scalar Network.nodes[477] newGossipEmitted:count 1
scalar Network.nodes[478] missingRequested:count 999
scalar Network.nodes[478] newGossipReceived:count 824
scalar Network.nodes[478] newGossipEmitted:count 0
scalar Network.nodes[479] missingRequested:count 925
scalar Network.nodes[479] newGossipReceived:count 824
scalar Network.nodes[479] newGossipEmitted:count 0
scalar Network.nodes[480] missingRequested:count 0
scalar Network.nodes[480] newGossipReceived:count 823
scalar Network.nodes[480] newGossipEmitted:count 1
scalar Network.nodes[481] missingRequested:count 823
scalar Network.nodes[481] newGossipReceived:count 824
scalar Network.nodes[481] newGossipEmitted:count 0
scalar Network.nodes[482] missingRequested:count 926
scalar Network.nodes[482] newGossipReceived:count 823
scalar Network.nodes[482] newGossipEmitted:count 1
scalar Network.nodes[483] missingRequested:count 883
scalar Network.nodes[483] newGossipReceived:count 823
scalar Network.nodes[483] newGossipEmitted:count 1
scalar Network.nodes[484] missingRequested:count 988
scalar Network.nodes[484] newGossipReceived:count 824
scalar Network.nodes[484] newGossipEmitted:count 0
scalar Network.nodes[485] missingRequested:count 890
scalar Network.nodes[485] newGossipReceived:count 823
scalar Network.nodes[485] newGossipEmitted:count 1
scalar Network.nodes[486] missingRequested:count 1074
scalar Network.nodes[486] newGossipReceived:count 823
scalar Network.nodes[486] newGossipEmitted:count 1
scalar Network.nodes[487] missingRequested:count 974
scalar Network.nodes[487] newGossipReceived:count 823
scalar Network.nodes[487] newGossipEmitted:count 1
scalar Network.nodes[488] missingRequested:count 948
scalar Network.nodes[488] newGossipReceived:count 824
scalar Network.nodes[488] newGossipEmitted:count 0
scalar Network.nodes[489] missingRequested:count 891
scalar Network.nodes[489] newGossipReceived:count 824
scalar Network.nodes[489] newGossipEmitted:count 0
scalar Network.nodes[490] missingRequested:count 900
scalar Network.nodes[490] newGossipReceived:count 824
scalar Network.nodes[490] newGossipEmitted:count 0
scalar Network.nodes[491] missingRequested:count 997
scalar Network.nodes[491] newGossipReceived:count 824
scalar Network.nodes[491] newGossipEmitted:count 0
scalar Network.nodes[492] missingRequested:count 823
scalar Network.nodes[492] newGossipReceived:count 824
scalar Network.nodes[492] newGossipEmitted:count 0
scalar Network.nodes[493] missingRequested:count 1333
scalar Network.nodes[493] newGossipReceived:count 823
scalar Network.nodes[493] newGossipEmitted:count 1
scalar Network.nodes[494] missingRequested:count 925
scalar Network.nodes[494] newGossipReceived:count 823
scalar Network.nodes[494] newGossipEmitted:count 1
scalar Network.nodes[495] missingRequested:count 0
scalar Network.nodes[495] newGossipReceived:count 823
scalar Network.nodes[495] newGossipEmitted:count 1
scalar Network.nodes[496] missingRequested:count 1012
scalar Network.nodes[496] newGossipReceived:count 823
[...]
scalar Network.nodes[19883] newGossipEmitted:count 0
scalar Network.nodes[19884] missingRequested:count 875
scalar Network.nodes[19884] newGossipReceived:count 824
scalar Network.nodes[19884] newGossipEmitted:count 0
scalar Network.nodes[19885] missingRequested:count 990
scalar Network.nodes[19885] newGossipReceived:count 824
scalar Network.nodes[19885] newGossipEmitted:count 0
scalar Network.nodes[19886] missingRequested:count 986
scalar Network.nodes[19886] newGossipReceived:count 824
scalar Network.nodes[19886] newGossipEmitted:count 0
scalar Network.nodes[19887] missingRequested:count 910
scalar Network.nodes[19887] newGossipReceived:count 824
scalar Network.nodes[19887] newGossipEmitted:count 0
scalar Network.nodes[19888] missingRequested:count 0
scalar Network.nodes[19888] newGossipReceived:count 824
scalar Network.nodes[19888] newGossipEmitted:count 0
scalar Network.nodes[19889] missingRequested:count 845
scalar Network.nodes[19889] newGossipReceived:count 824
scalar Network.nodes[19889] newGossipEmitted:count 0
scalar Network.nodes[19890] missingRequested:count 863
scalar Network.nodes[19890] newGossipReceived:count 824
scalar Network.nodes[19890] newGossipEmitted:count 0
scalar Network.nodes[19891] missingRequested:count 0
scalar Network.nodes[19891] newGossipReceived:count 824
scalar Network.nodes[19891] newGossipEmitted:count 0
scalar Network.nodes[19892] missingRequested:count 0
scalar Network.nodes[19892] newGossipReceived:count 824
scalar Network.nodes[19892] newGossipEmitted:count 0
scalar Network.nodes[19893] missingRequested:count 1074
scalar Network.nodes[19893] newGossipReceived:count 824
scalar Network.nodes[19893] newGossipEmitted:count 0
scalar Network.nodes[19894] missingRequested:count 677
scalar Network.nodes[19894] newGossipReceived:count 824
scalar Network.nodes[19894] newGossipEmitted:count 0
scalar Network.nodes[19895] missingRequested:count 777
scalar Network.nodes[19895] newGossipReceived:count 824
scalar Network.nodes[19895] newGossipEmitted:count 0
scalar Network.nodes[19896] missingRequested:count 279
scalar Network.nodes[19896] newGossipReceived:count 824
scalar Network.nodes[19896] newGossipEmitted:count 0
scalar Network.nodes[19897] missingRequested:count 35
scalar Network.nodes[19897] newGossipReceived:count 824
scalar Network.nodes[19897] newGossipEmitted:count 0
scalar Network.nodes[19898] missingRequested:count 559
scalar Network.nodes[19898] newGossipReceived:count 824
scalar Network.nodes[19898] newGossipEmitted:count 0
scalar Network.nodes[19899] missingRequested:count 823
scalar Network.nodes[19899] newGossipReceived:count 824
scalar Network.nodes[19899] newGossipEmitted:count 0
scalar Network.nodes[19900] missingRequested:count 0
scalar Network.nodes[19900] newGossipReceived:count 824
scalar Network.nodes[19900] newGossipEmitted:count 0
scalar Network.nodes[19901] missingRequested:count 785
scalar Network.nodes[19901] newGossipReceived:count 824
scalar Network.nodes[19901] newGossipEmitted:count 0
scalar Network.nodes[19902] missingRequested:count 324
scalar Network.nodes[19902] newGossipReceived:count 824
scalar Network.nodes[19902] newGossipEmitted:count 0
scalar Network.nodes[19903] missingRequested:count 992
scalar Network.nodes[19903] newGossipReceived:count 824
scalar Network.nodes[19903] newGossipEmitted:count 0
scalar Network.nodes[19904] missingRequested:count 948
scalar Network.nodes[19904] newGossipReceived:count 824
scalar Network.nodes[19904] newGossipEmitted:count 0
scalar Network.nodes[19905] missingRequested:count 1039
scalar Network.nodes[19905] newGossipReceived:count 824
scalar Network.nodes[19905] newGossipEmitted:count 0
scalar Network.nodes[19906] missingRequested:count 1043
scalar Network.nodes[19906] newGossipReceived:count 824
scalar Network.nodes[19906] newGossipEmitted:count 0
scalar Network.nodes[19907] missingRequested:count 940
scalar Network.nodes[19907] newGossipReceived:count 824
scalar Network.nodes[19907] newGossipEmitted:count 0
scalar Network.nodes[19908] missingRequested:count 734
scalar Network.nodes[19908] newGossipReceived:count 824
scalar Network.nodes[19908] newGossipEmitted:count 0
scalar Network.nodes[19909] missingRequested:count 418
scalar Network.nodes[19909] newGossipReceived:count 824
scalar Network.nodes[19909] newGossipEmitted:count 0
scalar Network.nodes[19910] missingRequested:count 823
scalar Network.nodes[19910] newGossipReceived:count 824
scalar Network.nodes[19910] newGossipEmitted:count 0
scalar Network.nodes[19911] missingRequested:count 0
scalar Network.nodes[19911] newGossipReceived:count 824
scalar Network.nodes[19911] newGossipEmitted:count 0
scalar Network.nodes[19912] missingRequested:count 1300
scalar Network.nodes[19912] newGossipReceived:count 824
scalar Network.nodes[19912] newGossipEmitted:count 0
scalar Network.nodes[19913] missingRequested:count 386
scalar Network.nodes[19913] newGossipReceived:count 824
scalar Network.nodes[19913] newGossipEmitted:count 0
scalar Network.nodes[19914] missingRequested:count 869
scalar Network.nodes[19914] newGossipReceived:count 824
scalar Network.nodes[19914] newGossipEmitted:count 0
scalar Network.nodes[19915] missingRequested:count 0
scalar Network.nodes[19915] newGossipReceived:count 824
scalar Network.nodes[19915] newGossipEmitted:count 0
scalar Network.nodes[19916] missingRequested:count 393
scalar Network.nodes[19916] newGossipReceived:count 824
scalar Network.nodes[19916] newGossipEmitted:count 0
scalar Network.nodes[19917] missingRequested:count 823
scalar Network.nodes[19917] newGossipReceived:count 824
scalar Network.nodes[19917] newGossipEmitted:count 0
scalar Network.nodes[19918] missingRequested:count 985
scalar Network.nodes[19918] newGossipReceived:count 824
scalar Network.nodes[19918] newGossipEmitted:count 0
scalar Network.nodes[19919] missingRequested:count 901
scalar Network.nodes[19919] newGossipReceived:count 824
scalar Network.nodes[19919] newGossipEmitted:count 0
scalar Network.nodes[19920] missingRequested:count 908
scalar Network.nodes[19920] newGossipReceived:count 824
scalar Network.nodes[19920] newGossipEmitted:count 0
scalar Network.nodes[19921] missingRequested:count 909
scalar Network.nodes[19921] newGossipReceived:count 824
scalar Network.nodes[19921] newGossipEmitted:count 0
scalar Network.nodes[19922] missingRequested:count 932
scalar Network.nodes[19922] newGossipReceived:count 824
scalar Network.nodes[19922] newGossipEmitted:count 0
scalar Network.nodes[19923] missingRequested:count 953
scalar Network.nodes[19923] newGossipReceived:count 824
scalar Network.nodes[19923] newGossipEmitted:count 0
scalar Network.nodes[19924] missingRequested:count 655
scalar Network.nodes[19924] newGossipReceived:count 824
scalar Network.nodes[19924] newGossipEmitted:count 0
scalar Network.nodes[19925] missingRequested:count 1127
scalar Network.nodes[19925] newGossipReceived:count 824
scalar Network.nodes[19925] newGossipEmitted:count 0
scalar Network.nodes[19926] missingRequested:count 898
scalar Network.nodes[19926] newGossipReceived:count 824
scalar Network.nodes[19926] newGossipEmitted:count 0
scalar Network.nodes[19927] missingRequested:count 0
scalar Network.nodes[19927] newGossipReceived:count 824
scalar Network.nodes[19927] newGossipEmitted:count 0
scalar Network.nodes[19928] missingRequested:count 972
scalar Network.nodes[19928] newGossipReceived:count 824
scalar Network.nodes[19928] newGossipEmitted:count 0
scalar Network.nodes[19929] missingRequested:count 975
scalar Network.nodes[19929] newGossipReceived:count 824
scalar Network.nodes[19929] newGossipEmitted:count 0
scalar Network.nodes[19930] missingRequested:count 1102
scalar Network.nodes[19930] newGossipReceived:count 824
scalar Network.nodes[19930] newGossipEmitted:count 0
scalar Network.nodes[19931] missingRequested:count 904
scalar Network.nodes[19931] newGossipReceived:count 824
scalar Network.nodes[19931] newGossipEmitted:count 0
scalar Network.nodes[19932] missingRequested:count 1048
scalar Network.nodes[19932] newGossipReceived:count 824
scalar Network.nodes[19932] newGossipEmitted:count 0
scalar Network.nodes[19933] missingRequested:count 907
scalar Network.nodes[19933] newGossipReceived:count 824
scalar Network.nodes[19933] newGossipEmitted:count 0
scalar Network.nodes[19934] missingRequested:count 882
scalar Network.nodes[19934] newGossipReceived:count 824
scalar Network.nodes[19934] newGossipEmitted:count 0
scalar Network.nodes[19935] missingRequested:count 941
scalar Network.nodes[19935] newGossipReceived:count 824
scalar Network.nodes[19935] newGossipEmitted:count 0
scalar Network.nodes[19936] missingRequested:count 1212
scalar Network.nodes[19936] newGossipReceived:count 824
scalar Network.nodes[19936] newGossipEmitted:count 0
scalar Network.nodes[19937] missingRequested:count 942
scalar Network.nodes[19937] newGossipReceived:count 824
scalar Network.nodes[19937] newGossipEmitted:count 0
scalar Network.nodes[19938] missingRequested:count 925
scalar Network.nodes[19938] newGossipReceived:count 824
scalar Network.nodes[19938] newGossipEmitted:count 0
scalar Network.nodes[19939] missingRequested:count 643
scalar Network.nodes[19939] newGossipReceived:count 824
scalar Network.nodes[19939] newGossipEmitted:count 0
scalar Network.nodes[19940] missingRequested:count 611
scalar Network.nodes[19940] newGossipReceived:count 824
scalar Network.nodes[19940] newGossipEmitted:count 0
scalar Network.nodes[19941] missingRequested:count 823
scalar Network.nodes[19941] newGossipReceived:count 824
scalar Network.nodes[19941] newGossipEmitted:count 0
scalar Network.nodes[19942] missingRequested:count 823
scalar Network.nodes[19942] newGossipReceived:count 824
scalar Network.nodes[19942] newGossipEmitted:count 0
scalar Network.nodes[19943] missingRequested:count 0
scalar Network.nodes[19943] newGossipReceived:count 824
scalar Network.nodes[19943] newGossipEmitted:count 0
scalar Network.nodes[19944] missingRequested:count 823
scalar Network.nodes[19944] newGossipReceived:count 824
scalar Network.nodes[19944] newGossipEmitted:count 0
scalar Network.nodes[19945] missingRequested:count 944
scalar Network.nodes[19945] newGossipReceived:count 824
scalar Network.nodes[19945] newGossipEmitted:count 0
scalar Network.nodes[19946] missingRequested:count 1011
scalar Network.nodes[19946] newGossipReceived:count 824
scalar Network.nodes[19946] newGossipEmitted:count 0
scalar Network.nodes[19947] missingRequested:count 818
scalar Network.nodes[19947] newGossipReceived:count 824
scalar Network.nodes[19947] newGossipEmitted:count 0
scalar Network.nodes[19948] missingRequested:count 904
scalar Network.nodes[19948] newGossipReceived:count 824
scalar Network.nodes[19948] newGossipEmitted:count 0
scalar Network.nodes[19949] missingRequested:count 0
scalar Network.nodes[19949] newGossipReceived:count 824
scalar Network.nodes[19949] newGossipEmitted:count 0
scalar Network.nodes[19950] missingRequested:count 910
scalar Network.nodes[19950] newGossipReceived:count 824
scalar Network.nodes[19950] newGossipEmitted:count 0
scalar Network.nodes[19951] missingRequested:count 895
scalar Network.nodes[19951] newGossipReceived:count 824
scalar Network.nodes[19951] newGossipEmitted:count 0
scalar Network.nodes[19952] missingRequested:count 0
scalar Network.nodes[19952] newGossipReceived:count 0
scalar Network.nodes[19952] newGossipEmitted:count 0
scalar Network.nodes[19953] missingRequested:count 0
scalar Network.nodes[19953] newGossipReceived:count 824
scalar Network.nodes[19953] newGossipEmitted:count 0
scalar Network.nodes[19954] missingRequested:count 746
scalar Network.nodes[19954] newGossipReceived:count 824
scalar Network.nodes[19954] newGossipEmitted:count 0
scalar Network.nodes[19955] missingRequested:count 0
scalar Network.nodes[19955] newGossipReceived:count 824
scalar Network.nodes[19955] newGossipEmitted:count 0
scalar Network.nodes[19956] missingRequested:count 569
scalar Network.nodes[19956] newGossipReceived:count 824
scalar Network.nodes[19956] newGossipEmitted:count 0
scalar Network.nodes[19957] missingRequested:count 998
scalar Network.nodes[19957] newGossipReceived:count 824
scalar Network.nodes[19957] newGossipEmitted:count 0
scalar Network.nodes[19958] missingRequested:count 994
scalar Network.nodes[19958] newGossipReceived:count 824
scalar Network.nodes[19958] newGossipEmitted:count 0
scalar Network.nodes[19959] missingRequested:count 88
scalar Network.nodes[19959] newGossipReceived:count 824
scalar Network.nodes[19959] newGossipEmitted:count 0
scalar Network.nodes[19960] missingRequested:count 0
scalar Network.nodes[19960] newGossipReceived:count 824
scalar Network.nodes[19960] newGossipEmitted:count 0
scalar Network.nodes[19961] missingRequested:count 918
scalar Network.nodes[19961] newGossipReceived:count 824
scalar Network.nodes[19961] newGossipEmitted:count 0
scalar Network.nodes[19962] missingRequested:count 820
scalar Network.nodes[19962] newGossipReceived:count 824
scalar Network.nodes[19962] newGossipEmitted:count 0
scalar Network.nodes[19963] missingRequested:count 634
scalar Network.nodes[19963] newGossipReceived:count 824
scalar Network.nodes[19963] newGossipEmitted:count 0
scalar Network.nodes[19964] missingRequested:count 733
scalar Network.nodes[19964] newGossipReceived:count 824
scalar Network.nodes[19964] newGossipEmitted:count 0
scalar Network.nodes[19965] missingRequested:count 827
scalar Network.nodes[19965] newGossipReceived:count 824
scalar Network.nodes[19965] newGossipEmitted:count 0
scalar Network.nodes[19966] missingRequested:count 856
scalar Network.nodes[19966] newGossipReceived:count 824
scalar Network.nodes[19966] newGossipEmitted:count 0
scalar Network.nodes[19967] missingRequested:count 969
scalar Network.nodes[19967] newGossipReceived:count 824
scalar Network.nodes[19967] newGossipEmitted:count 0
scalar Network.nodes[19968] missingRequested:count 1046
scalar Network.nodes[19968] newGossipReceived:count 824
scalar Network.nodes[19968] newGossipEmitted:count 0
scalar Network.nodes[19969] missingRequested:count 918
scalar Network.nodes[19969] newGossipReceived:count 824
scalar Network.nodes[19969] newGossipEmitted:count 0
scalar Network.nodes[19970] missingRequested:count 0
scalar Network.nodes[19970] newGossipReceived:count 824
scalar Network.nodes[19970] newGossipEmitted:count 0
scalar Network.nodes[19971] missingRequested:count 911
scalar Network.nodes[19971] newGossipReceived:count 824
scalar Network.nodes[19971] newGossipEmitted:count 0
scalar Network.nodes[19972] missingRequested:count 934
scalar Network.nodes[19972] newGossipReceived:count 824
scalar Network.nodes[19972] newGossipEmitted:count 0
scalar Network.nodes[19973] missingRequested:count 793
scalar Network.nodes[19973] newGossipReceived:count 824
scalar Network.nodes[19973] newGossipEmitted:count 0
scalar Network.nodes[19974] missingRequested:count 889
scalar Network.nodes[19974] newGossipReceived:count 824
scalar Network.nodes[19974] newGossipEmitted:count 0
scalar Network.nodes[19975] missingRequested:count 646
scalar Network.nodes[19975] newGossipReceived:count 824
scalar Network.nodes[19975] newGossipEmitted:count 0
scalar Network.nodes[19976] missingRequested:count 733
scalar Network.nodes[19976] newGossipReceived:count 824
scalar Network.nodes[19976] newGossipEmitted:count 0
scalar Network.nodes[19977] missingRequested:count 715
scalar Network.nodes[19977] newGossipReceived:count 824
scalar Network.nodes[19977] newGossipEmitted:count 0
scalar Network.nodes[19978] missingRequested:count 964
scalar Network.nodes[19978] newGossipReceived:count 824
scalar Network.nodes[19978] newGossipEmitted:count 0
scalar Network.nodes[19979] missingRequested:count 823
scalar Network.nodes[19979] newGossipReceived:count 824
scalar Network.nodes[19979] newGossipEmitted:count 0
scalar Network.nodes[19980] missingRequested:count 1045
scalar Network.nodes[19980] newGossipReceived:count 824
scalar Network.nodes[19980] newGossipEmitted:count 0
scalar Network.nodes[19981] missingRequested:count 854
scalar Network.nodes[19981] newGossipReceived:count 824
scalar Network.nodes[19981] newGossipEmitted:count 0
scalar Network.nodes[19982] missingRequested:count 1130
scalar Network.nodes[19982] newGossipReceived:count 824
scalar Network.nodes[19982] newGossipEmitted:count 0
scalar Network.nodes[19983] missingRequested:count 1087
scalar Network.nodes[19983] newGossipReceived:count 824
scalar Network.nodes[19983] newGossipEmitted:count 0
scalar Network.nodes[19984] missingRequested:count 1098
scalar Network.nodes[19984] newGossipReceived:count 824
scalar Network.nodes[19984] newGossipEmitted:count 0
scalar Network.nodes[19985] missingRequested:count 0
scalar Network.nodes[19985] newGossipReceived:count 824
scalar Network.nodes[19985] newGossipEmitted:count 0
scalar Network.nodes[19986] missingRequested:count 903
scalar Network.nodes[19986] newGossipReceived:count 824
scalar Network.nodes[19986] newGossipEmitted:count 0
scalar Network.nodes[19987] missingRequested:count 925
scalar Network.nodes[19987] newGossipReceived:count 824
scalar Network.nodes[19987] newGossipEmitted:count 0
scalar Network.nodes[19988] missingRequested:count 876
scalar Network.nodes[19988] newGossipReceived:count 824
scalar Network.nodes[19988] newGossipEmitted:count 0
scalar Network.nodes[19989] missingRequested:count 823
scalar Network.nodes[19989] newGossipReceived:count 824
scalar Network.nodes[19989] newGossipEmitted:count 0
scalar Network.nodes[19990] missingRequested:count 1013
scalar Network.nodes[19990] newGossipReceived:count 824
scalar Network.nodes[19990] newGossipEmitted:count 0
scalar Network.nodes[19991] missingRequested:count 974
scalar Network.nodes[19991] newGossipReceived:count 824
scalar Network.nodes[19991] newGossipEmitted:count 0
scalar Network.nodes[19992] missingRequested:count 780
scalar Network.nodes[19992] newGossipReceived:count 824
scalar Network.nodes[19992] newGossipEmitted:count 0
scalar Network.nodes[19993] missingRequested:count 833
scalar Network.nodes[19993] newGossipReceived:count 824
scalar Network.nodes[19993] newGossipEmitted:count 0
scalar Network.nodes[19994] missingRequested:count 823
scalar Network.nodes[19994] newGossipReceived:count 824
scalar Network.nodes[19994] newGossipEmitted:count 0
scalar Network.nodes[19995] missingRequested:count 871
scalar Network.nodes[19995] newGossipReceived:count 824
scalar Network.nodes[19995] newGossipEmitted:count 0
scalar Network.nodes[19996] missingRequested:count 992
scalar Network.nodes[19996] newGossipReceived:count 824
scalar Network.nodes[19996] newGossipEmitted:count 0
scalar Network.nodes[19997] missingRequested:count 823
scalar Network.nodes[19997] newGossipReceived:count 824
scalar Network.nodes[19997] newGossipEmitted:count 0
scalar Network.nodes[19998] missingRequested:count 660
scalar Network.nodes[19998] newGossipReceived:count 824
scalar Network.nodes[19998] newGossipEmitted:count 0
scalar Network.nodes[19999] missingRequested:count 968
scalar Network.nodes[19999] newGossipReceived:count 824
scalar Network.nodes[19999] newGossipEmitted:count 0
scalar Network messageSent:count 1249408699
scalar Network newGossipReceived:count 16466831
statistic Network newGossipReceived:histogram
field count 16466831
field mean 16.701744008911
field stddev 3.3278504593035
field min 0
field max 42
field sum 275024796
field sqrsum 4775757108
bin	-inf	0
bin	0	3172
bin	1	3687
bin	2	4963
bin	3	7574
bin	4	12332
bin	5	20399
bin	6	33677
bin	7	56216
bin	8	91618
bin	9	144046
bin	10	224262
bin	11	349954
bin	12	541164
bin	13	820075
bin	14	1216983
bin	15	1727220
bin	16	2236293
bin	17	2483783
bin	18	2256494
bin	19	1648634
bin	20	1005233
bin	21	567503
bin	22	343390
bin	23	232855
bin	24	161426
bin	25	105001
bin	26	64582
bin	27	40599
bin	28	26615
bin	29	16504
bin	30	9248
bin	31	5091
bin	32	2759
bin	33	1514
bin	34	903
bin	35	541
bin	36	303
bin	37	129
bin	38	47
bin	39	16
bin	40	16
bin	41	7
bin	42	3
bin	43	0
scalar Network newGossipEmitted:count 825

