version 2
run EpiSub-6-20180813-23:15:56-28949
attr configname EpiSub
attr datetime 20180813-23:15:56
attr experiment EpiSub
attr inifile omnetpp.ini
attr iterationvars "$nodeCount=1000, $rampUpTime=1000 * 1s, $0=10Hz / 1000, $1=1000 * 1s + 20s"
attr iterationvarsf nodeCount=1000,rampUpTime=1000_#2a_1s,10Hz_#2f_1000,1000_#2a_1s_+_20s-
attr measurement "$nodeCount=1000, $rampUpTime=1000 * 1s, $0=10Hz / 1000, $1=1000 * 1s + 20s"
attr network sharding.Network
attr processid 28949
attr repetition 0
attr replication #0
attr resultdir results
attr runnumber 6
attr seedset 6
itervar nodeCount 1000
itervar rampUpTime "1000 * 1s"
param Network.nodeManager.nodeTypeName "\"sharding.episub.EpiSubNode\""
param Network.nodes[*].gossipHandler.notificationInterval 0.1s
param Network.nodes[*].missingTracker.waitTime 2s
param Network.nodeManager.bootstrapNodeCount 3
param Network.nodeManager.targetNodeCount 1000
param Network.nodeManager.rampUpTime "1000 * 1s"
param Network.nodes[*].source.rate "10Hz / 1000"
param Network.nodes[*].source.active true
param Network.nodes[*].source.warmupTime "1000 * 1s + 20s"
param Network.nodes[*].source.lifeTime 600s
param Network.nodes[*].connectionManager.numRandomNeighbors 2
param Network.nodes[*].connectionManager.numNearNeighbors 2
param Network.nodes[*].connectionManager.passiveListSize 42
param Network.nodes[*].connectionManager.contactNodes "\"0 1 2\""
param Network.nodes[*].connectionManager.activeHeartbeatInterval 2.0
param Network.nodes[*].connectionManager.joinTTL 1
param Network.nodes[*].connectionManager.forwardJoinTTL 1
param Network.nodes[*].connectionManager.shuffleInterval 2.0
param Network.nodes[*].connectionManager.activeShufflingSize 5
param Network.nodes[*].connectionManager.passiveShufflingSize 5
param Network.nodes[*].connectionManager.shuffleTTL 1

scalar Network.nodes[0] missingRequested:count 8467
scalar Network.nodes[0] newGossipReceived:count 6080
scalar Network.nodes[0] newGossipEmitted:count 3
scalar Network.nodes[1] missingRequested:count 7974
scalar Network.nodes[1] newGossipReceived:count 6081
scalar Network.nodes[1] newGossipEmitted:count 2
scalar Network.nodes[2] missingRequested:count 7937
scalar Network.nodes[2] newGossipReceived:count 6076
scalar Network.nodes[2] newGossipEmitted:count 7
scalar Network.nodes[3] missingRequested:count 7927
scalar Network.nodes[3] newGossipReceived:count 6077
scalar Network.nodes[3] newGossipEmitted:count 6
scalar Network.nodes[4] missingRequested:count 8448
scalar Network.nodes[4] newGossipReceived:count 6075
scalar Network.nodes[4] newGossipEmitted:count 8
scalar Network.nodes[5] missingRequested:count 8192
scalar Network.nodes[5] newGossipReceived:count 6075
scalar Network.nodes[5] newGossipEmitted:count 8
scalar Network.nodes[6] missingRequested:count 8079
scalar Network.nodes[6] newGossipReceived:count 6080
scalar Network.nodes[6] newGossipEmitted:count 3
scalar Network.nodes[7] missingRequested:count 8612
scalar Network.nodes[7] newGossipReceived:count 6076
scalar Network.nodes[7] newGossipEmitted:count 7
scalar Network.nodes[8] missingRequested:count 6284
scalar Network.nodes[8] newGossipReceived:count 6075
scalar Network.nodes[8] newGossipEmitted:count 8
scalar Network.nodes[9] missingRequested:count 8322
scalar Network.nodes[9] newGossipReceived:count 6079
scalar Network.nodes[9] newGossipEmitted:count 4
scalar Network.nodes[10] missingRequested:count 8199
scalar Network.nodes[10] newGossipReceived:count 6075
scalar Network.nodes[10] newGossipEmitted:count 8
scalar Network.nodes[11] missingRequested:count 7959
scalar Network.nodes[11] newGossipReceived:count 6079
scalar Network.nodes[11] newGossipEmitted:count 4
scalar Network.nodes[12] missingRequested:count 8337
scalar Network.nodes[12] newGossipReceived:count 6077
scalar Network.nodes[12] newGossipEmitted:count 6
scalar Network.nodes[13] missingRequested:count 7984
scalar Network.nodes[13] newGossipReceived:count 6077
scalar Network.nodes[13] newGossipEmitted:count 6
scalar Network.nodes[14] missingRequested:count 8288
scalar Network.nodes[14] newGossipReceived:count 6081
scalar Network.nodes[14] newGossipEmitted:count 2
scalar Network.nodes[15] missingRequested:count 8182
scalar Network.nodes[15] newGossipReceived:count 6078
scalar Network.nodes[15] newGossipEmitted:count 5
scalar Network.nodes[16] missingRequested:count 8434
scalar Network.nodes[16] newGossipReceived:count 6075
scalar Network.nodes[16] newGossipEmitted:count 8
scalar Network.nodes[17] missingRequested:count 8276
scalar Network.nodes[17] newGossipReceived:count 6075
scalar Network.nodes[17] newGossipEmitted:count 8
scalar Network.nodes[18] missingRequested:count 8118
scalar Network.nodes[18] newGossipReceived:count 6070
scalar Network.nodes[18] newGossipEmitted:count 13
scalar Network.nodes[19] missingRequested:count 8205
scalar Network.nodes[19] newGossipReceived:count 6075
scalar Network.nodes[19] newGossipEmitted:count 8
scalar Network.nodes[20] missingRequested:count 7918
scalar Network.nodes[20] newGossipReceived:count 6077
scalar Network.nodes[20] newGossipEmitted:count 6
scalar Network.nodes[21] missingRequested:count 8163
scalar Network.nodes[21] newGossipReceived:count 6076
scalar Network.nodes[21] newGossipEmitted:count 7
scalar Network.nodes[22] missingRequested:count 7882
scalar Network.nodes[22] newGossipReceived:count 6079
scalar Network.nodes[22] newGossipEmitted:count 4
scalar Network.nodes[23] missingRequested:count 8411
scalar Network.nodes[23] newGossipReceived:count 6079
scalar Network.nodes[23] newGossipEmitted:count 4
scalar Network.nodes[24] missingRequested:count 8377
scalar Network.nodes[24] newGossipReceived:count 6075
scalar Network.nodes[24] newGossipEmitted:count 8
scalar Network.nodes[25] missingRequested:count 8092
scalar Network.nodes[25] newGossipReceived:count 6079
scalar Network.nodes[25] newGossipEmitted:count 4
scalar Network.nodes[26] missingRequested:count 8002
scalar Network.nodes[26] newGossipReceived:count 6075
scalar Network.nodes[26] newGossipEmitted:count 8
scalar Network.nodes[27] missingRequested:count 8695
scalar Network.nodes[27] newGossipReceived:count 6078
scalar Network.nodes[27] newGossipEmitted:count 5
scalar Network.nodes[28] missingRequested:count 7926
scalar Network.nodes[28] newGossipReceived:count 6076
scalar Network.nodes[28] newGossipEmitted:count 7
scalar Network.nodes[29] missingRequested:count 8617
scalar Network.nodes[29] newGossipReceived:count 6078
scalar Network.nodes[29] newGossipEmitted:count 5
scalar Network.nodes[30] missingRequested:count 7834
scalar Network.nodes[30] newGossipReceived:count 6080
scalar Network.nodes[30] newGossipEmitted:count 3
scalar Network.nodes[31] missingRequested:count 8279
scalar Network.nodes[31] newGossipReceived:count 6080
scalar Network.nodes[31] newGossipEmitted:count 3
scalar Network.nodes[32] missingRequested:count 7959
scalar Network.nodes[32] newGossipReceived:count 6076
scalar Network.nodes[32] newGossipEmitted:count 7
scalar Network.nodes[33] missingRequested:count 8230
scalar Network.nodes[33] newGossipReceived:count 6077
scalar Network.nodes[33] newGossipEmitted:count 6
scalar Network.nodes[34] missingRequested:count 8056
scalar Network.nodes[34] newGossipReceived:count 6073
scalar Network.nodes[34] newGossipEmitted:count 10
scalar Network.nodes[35] missingRequested:count 8120
scalar Network.nodes[35] newGossipReceived:count 6074
scalar Network.nodes[35] newGossipEmitted:count 9
scalar Network.nodes[36] missingRequested:count 8578
scalar Network.nodes[36] newGossipReceived:count 6078
scalar Network.nodes[36] newGossipEmitted:count 5
scalar Network.nodes[37] missingRequested:count 8242
scalar Network.nodes[37] newGossipReceived:count 6081
scalar Network.nodes[37] newGossipEmitted:count 2
scalar Network.nodes[38] missingRequested:count 7474
scalar Network.nodes[38] newGossipReceived:count 6081
scalar Network.nodes[38] newGossipEmitted:count 2
scalar Network.nodes[39] missingRequested:count 8316
scalar Network.nodes[39] newGossipReceived:count 6073
scalar Network.nodes[39] newGossipEmitted:count 10
scalar Network.nodes[40] missingRequested:count 8265
scalar Network.nodes[40] newGossipReceived:count 6074
scalar Network.nodes[40] newGossipEmitted:count 9
scalar Network.nodes[41] missingRequested:count 8478
scalar Network.nodes[41] newGossipReceived:count 6078
scalar Network.nodes[41] newGossipEmitted:count 5
scalar Network.nodes[42] missingRequested:count 7852
scalar Network.nodes[42] newGossipReceived:count 6076
scalar Network.nodes[42] newGossipEmitted:count 7
scalar Network.nodes[43] missingRequested:count 10337
scalar Network.nodes[43] newGossipReceived:count 6076
scalar Network.nodes[43] newGossipEmitted:count 7
scalar Network.nodes[44] missingRequested:count 8398
scalar Network.nodes[44] newGossipReceived:count 6081
scalar Network.nodes[44] newGossipEmitted:count 2
scalar Network.nodes[45] missingRequested:count 8109
scalar Network.nodes[45] newGossipReceived:count 6076
scalar Network.nodes[45] newGossipEmitted:count 7
scalar Network.nodes[46] missingRequested:count 8579
scalar Network.nodes[46] newGossipReceived:count 6078
scalar Network.nodes[46] newGossipEmitted:count 5
scalar Network.nodes[47] missingRequested:count 8148
scalar Network.nodes[47] newGossipReceived:count 6079
scalar Network.nodes[47] newGossipEmitted:count 4
scalar Network.nodes[48] missingRequested:count 8382
scalar Network.nodes[48] newGossipReceived:count 6071
scalar Network.nodes[48] newGossipEmitted:count 12
scalar Network.nodes[49] missingRequested:count 8227
scalar Network.nodes[49] newGossipReceived:count 6077
scalar Network.nodes[49] newGossipEmitted:count 6
scalar Network.nodes[50] missingRequested:count 8415
scalar Network.nodes[50] newGossipReceived:count 6072
scalar Network.nodes[50] newGossipEmitted:count 11
scalar Network.nodes[51] missingRequested:count 8423
scalar Network.nodes[51] newGossipReceived:count 6081
scalar Network.nodes[51] newGossipEmitted:count 2
scalar Network.nodes[52] missingRequested:count 7981
scalar Network.nodes[52] newGossipReceived:count 6078
scalar Network.nodes[52] newGossipEmitted:count 5
scalar Network.nodes[53] missingRequested:count 8242
scalar Network.nodes[53] newGossipReceived:count 6079
scalar Network.nodes[53] newGossipEmitted:count 4
scalar Network.nodes[54] missingRequested:count 8458
scalar Network.nodes[54] newGossipReceived:count 6078
scalar Network.nodes[54] newGossipEmitted:count 5
scalar Network.nodes[55] missingRequested:count 8318
scalar Network.nodes[55] newGossipReceived:count 6076
scalar Network.nodes[55] newGossipEmitted:count 7
scalar Network.nodes[56] missingRequested:count 7779
scalar Network.nodes[56] newGossipReceived:count 6073
scalar Network.nodes[56] newGossipEmitted:count 10
scalar Network.nodes[57] missingRequested:count 7920
scalar Network.nodes[57] newGossipReceived:count 6073
scalar Network.nodes[57] newGossipEmitted:count 10
scalar Network.nodes[58] missingRequested:count 8495
scalar Network.nodes[58] newGossipReceived:count 6080
scalar Network.nodes[58] newGossipEmitted:count 3
scalar Network.nodes[59] missingRequested:count 8240
scalar Network.nodes[59] newGossipReceived:count 6075
scalar Network.nodes[59] newGossipEmitted:count 8
scalar Network.nodes[60] missingRequested:count 8368
scalar Network.nodes[60] newGossipReceived:count 6077
scalar Network.nodes[60] newGossipEmitted:count 6
scalar Network.nodes[61] missingRequested:count 8231
scalar Network.nodes[61] newGossipReceived:count 6081
scalar Network.nodes[61] newGossipEmitted:count 2
scalar Network.nodes[62] missingRequested:count 8382
scalar Network.nodes[62] newGossipReceived:count 6078
scalar Network.nodes[62] newGossipEmitted:count 5
scalar Network.nodes[63] missingRequested:count 8090
scalar Network.nodes[63] newGossipReceived:count 6080
scalar Network.nodes[63] newGossipEmitted:count 3
scalar Network.nodes[64] missingRequested:count 8167
scalar Network.nodes[64] newGossipReceived:count 6081
scalar Network.nodes[64] newGossipEmitted:count 2
scalar Network.nodes[65] missingRequested:count 7825
scalar Network.nodes[65] newGossipReceived:count 6079
scalar Network.nodes[65] newGossipEmitted:count 4
scalar Network.nodes[66] missingRequested:count 7969
scalar Network.nodes[66] newGossipReceived:count 6075
scalar Network.nodes[66] newGossipEmitted:count 8
scalar Network.nodes[67] missingRequested:count 8084
scalar Network.nodes[67] newGossipReceived:count 6075
scalar Network.nodes[67] newGossipEmitted:count 8
scalar Network.nodes[68] missingRequested:count 7807
scalar Network.nodes[68] newGossipReceived:count 6068
scalar Network.nodes[68] newGossipEmitted:count 15
scalar Network.nodes[69] missingRequested:count 8261
scalar Network.nodes[69] newGossipReceived:count 6075
scalar Network.nodes[69] newGossipEmitted:count 8
scalar Network.nodes[70] missingRequested:count 8108
scalar Network.nodes[70] newGossipReceived:count 6073
scalar Network.nodes[70] newGossipEmitted:count 10
scalar Network.nodes[71] missingRequested:count 8553
scalar Network.nodes[71] newGossipReceived:count 6079
scalar Network.nodes[71] newGossipEmitted:count 4
scalar Network.nodes[72] missingRequested:count 8267
scalar Network.nodes[72] newGossipReceived:count 6076
scalar Network.nodes[72] newGossipEmitted:count 7
scalar Network.nodes[73] missingRequested:count 8553
scalar Network.nodes[73] newGossipReceived:count 6077
scalar Network.nodes[73] newGossipEmitted:count 6
scalar Network.nodes[74] missingRequested:count 8494
scalar Network.nodes[74] newGossipReceived:count 6078
scalar Network.nodes[74] newGossipEmitted:count 5
scalar Network.nodes[75] missingRequested:count 8378
scalar Network.nodes[75] newGossipReceived:count 6076
scalar Network.nodes[75] newGossipEmitted:count 7
scalar Network.nodes[76] missingRequested:count 8319
scalar Network.nodes[76] newGossipReceived:count 6077
scalar Network.nodes[76] newGossipEmitted:count 6
scalar Network.nodes[77] missingRequested:count 8408
scalar Network.nodes[77] newGossipReceived:count 6072
scalar Network.nodes[77] newGossipEmitted:count 11
scalar Network.nodes[78] missingRequested:count 7678
scalar Network.nodes[78] newGossipReceived:count 6078
scalar Network.nodes[78] newGossipEmitted:count 5
scalar Network.nodes[79] missingRequested:count 8583
scalar Network.nodes[79] newGossipReceived:count 6078
scalar Network.nodes[79] newGossipEmitted:count 5
scalar Network.nodes[80] missingRequested:count 8480
scalar Network.nodes[80] newGossipReceived:count 6077
scalar Network.nodes[80] newGossipEmitted:count 6
scalar Network.nodes[81] missingRequested:count 8359
scalar Network.nodes[81] newGossipReceived:count 6079
scalar Network.nodes[81] newGossipEmitted:count 4
scalar Network.nodes[82] missingRequested:count 8459
scalar Network.nodes[82] newGossipReceived:count 6076
scalar Network.nodes[82] newGossipEmitted:count 7
scalar Network.nodes[83] missingRequested:count 8293
scalar Network.nodes[83] newGossipReceived:count 6077
scalar Network.nodes[83] newGossipEmitted:count 6
scalar Network.nodes[84] missingRequested:count 8522
scalar Network.nodes[84] newGossipReceived:count 6077
scalar Network.nodes[84] newGossipEmitted:count 6
scalar Network.nodes[85] missingRequested:count 8080
scalar Network.nodes[85] newGossipReceived:count 6076
scalar Network.nodes[85] newGossipEmitted:count 7
scalar Network.nodes[86] missingRequested:count 8031
scalar Network.nodes[86] newGossipReceived:count 6078
scalar Network.nodes[86] newGossipEmitted:count 5
scalar Network.nodes[87] missingRequested:count 8321
scalar Network.nodes[87] newGossipReceived:count 6079
scalar Network.nodes[87] newGossipEmitted:count 4
scalar Network.nodes[88] missingRequested:count 7677
scalar Network.nodes[88] newGossipReceived:count 6080
scalar Network.nodes[88] newGossipEmitted:count 3
scalar Network.nodes[89] missingRequested:count 8297
scalar Network.nodes[89] newGossipReceived:count 6080
scalar Network.nodes[89] newGossipEmitted:count 3
scalar Network.nodes[90] missingRequested:count 7829
scalar Network.nodes[90] newGossipReceived:count 6081
scalar Network.nodes[90] newGossipEmitted:count 2
scalar Network.nodes[91] missingRequested:count 8066
scalar Network.nodes[91] newGossipReceived:count 6078
scalar Network.nodes[91] newGossipEmitted:count 5
scalar Network.nodes[92] missingRequested:count 7869
scalar Network.nodes[92] newGossipReceived:count 6078
scalar Network.nodes[92] newGossipEmitted:count 5
scalar Network.nodes[93] missingRequested:count 8048
scalar Network.nodes[93] newGossipReceived:count 6078
scalar Network.nodes[93] newGossipEmitted:count 5
scalar Network.nodes[94] missingRequested:count 8472
scalar Network.nodes[94] newGossipReceived:count 6075
scalar Network.nodes[94] newGossipEmitted:count 8
scalar Network.nodes[95] missingRequested:count 7975
scalar Network.nodes[95] newGossipReceived:count 6075
scalar Network.nodes[95] newGossipEmitted:count 8
scalar Network.nodes[96] missingRequested:count 8213
scalar Network.nodes[96] newGossipReceived:count 6075
scalar Network.nodes[96] newGossipEmitted:count 8
scalar Network.nodes[97] missingRequested:count 8083
scalar Network.nodes[97] newGossipReceived:count 6080
scalar Network.nodes[97] newGossipEmitted:count 3
scalar Network.nodes[98] missingRequested:count 7953
scalar Network.nodes[98] newGossipReceived:count 6073
scalar Network.nodes[98] newGossipEmitted:count 10
scalar Network.nodes[99] missingRequested:count 8436
scalar Network.nodes[99] newGossipReceived:count 6080
scalar Network.nodes[99] newGossipEmitted:count 3
scalar Network.nodes[100] missingRequested:count 8286
scalar Network.nodes[100] newGossipReceived:count 6078
scalar Network.nodes[100] newGossipEmitted:count 5
scalar Network.nodes[101] missingRequested:count 8250
scalar Network.nodes[101] newGossipReceived:count 6080
scalar Network.nodes[101] newGossipEmitted:count 3
scalar Network.nodes[102] missingRequested:count 8320
scalar Network.nodes[102] newGossipReceived:count 6078
scalar Network.nodes[102] newGossipEmitted:count 5
scalar Network.nodes[103] missingRequested:count 8409
scalar Network.nodes[103] newGossipReceived:count 6080
scalar Network.nodes[103] newGossipEmitted:count 3
scalar Network.nodes[104] missingRequested:count 8447
scalar Network.nodes[104] newGossipReceived:count 6080
scalar Network.nodes[104] newGossipEmitted:count 3
scalar Network.nodes[105] missingRequested:count 8401
scalar Network.nodes[105] newGossipReceived:count 6074
scalar Network.nodes[105] newGossipEmitted:count 9
scalar Network.nodes[106] missingRequested:count 7916
scalar Network.nodes[106] newGossipReceived:count 6078
scalar Network.nodes[106] newGossipEmitted:count 5
scalar Network.nodes[107] missingRequested:count 8606
scalar Network.nodes[107] newGossipReceived:count 6079
scalar Network.nodes[107] newGossipEmitted:count 4
scalar Network.nodes[108] missingRequested:count 8145
scalar Network.nodes[108] newGossipReceived:count 6077
scalar Network.nodes[108] newGossipEmitted:count 6
scalar Network.nodes[109] missingRequested:count 7761
scalar Network.nodes[109] newGossipReceived:count 6078
scalar Network.nodes[109] newGossipEmitted:count 5
scalar Network.nodes[110] missingRequested:count 8089
scalar Network.nodes[110] newGossipReceived:count 6072
scalar Network.nodes[110] newGossipEmitted:count 11
scalar Network.nodes[111] missingRequested:count 7818
scalar Network.nodes[111] newGossipReceived:count 6079
scalar Network.nodes[111] newGossipEmitted:count 4
scalar Network.nodes[112] missingRequested:count 8151
scalar Network.nodes[112] newGossipReceived:count 6079
scalar Network.nodes[112] newGossipEmitted:count 4
scalar Network.nodes[113] missingRequested:count 8485
scalar Network.nodes[113] newGossipReceived:count 6078
scalar Network.nodes[113] newGossipEmitted:count 5
scalar Network.nodes[114] missingRequested:count 8484
scalar Network.nodes[114] newGossipReceived:count 6077
scalar Network.nodes[114] newGossipEmitted:count 6
scalar Network.nodes[115] missingRequested:count 8301
scalar Network.nodes[115] newGossipReceived:count 6078
scalar Network.nodes[115] newGossipEmitted:count 5
scalar Network.nodes[116] missingRequested:count 8183
scalar Network.nodes[116] newGossipReceived:count 6078
scalar Network.nodes[116] newGossipEmitted:count 5
scalar Network.nodes[117] missingRequested:count 8201
scalar Network.nodes[117] newGossipReceived:count 6075
scalar Network.nodes[117] newGossipEmitted:count 8
scalar Network.nodes[118] missingRequested:count 8343
scalar Network.nodes[118] newGossipReceived:count 6076
scalar Network.nodes[118] newGossipEmitted:count 7
scalar Network.nodes[119] missingRequested:count 7834
scalar Network.nodes[119] newGossipReceived:count 6077
scalar Network.nodes[119] newGossipEmitted:count 6
scalar Network.nodes[120] missingRequested:count 8258
scalar Network.nodes[120] newGossipReceived:count 6077
scalar Network.nodes[120] newGossipEmitted:count 6
scalar Network.nodes[121] missingRequested:count 7996
scalar Network.nodes[121] newGossipReceived:count 6080
scalar Network.nodes[121] newGossipEmitted:count 3
scalar Network.nodes[122] missingRequested:count 8303
scalar Network.nodes[122] newGossipReceived:count 6077
scalar Network.nodes[122] newGossipEmitted:count 6
scalar Network.nodes[123] missingRequested:count 8245
scalar Network.nodes[123] newGossipReceived:count 6074
scalar Network.nodes[123] newGossipEmitted:count 9
scalar Network.nodes[124] missingRequested:count 7990
scalar Network.nodes[124] newGossipReceived:count 6078
scalar Network.nodes[124] newGossipEmitted:count 5
scalar Network.nodes[125] missingRequested:count 8452
scalar Network.nodes[125] newGossipReceived:count 6079
scalar Network.nodes[125] newGossipEmitted:count 4
scalar Network.nodes[126] missingRequested:count 8214
scalar Network.nodes[126] newGossipReceived:count 6076
scalar Network.nodes[126] newGossipEmitted:count 7
scalar Network.nodes[127] missingRequested:count 7984
scalar Network.nodes[127] newGossipReceived:count 6079
scalar Network.nodes[127] newGossipEmitted:count 4
scalar Network.nodes[128] missingRequested:count 8116
scalar Network.nodes[128] newGossipReceived:count 6077
scalar Network.nodes[128] newGossipEmitted:count 6
scalar Network.nodes[129] missingRequested:count 7960
scalar Network.nodes[129] newGossipReceived:count 6077
scalar Network.nodes[129] newGossipEmitted:count 6
scalar Network.nodes[130] missingRequested:count 8389
scalar Network.nodes[130] newGossipReceived:count 6081
scalar Network.nodes[130] newGossipEmitted:count 2
scalar Network.nodes[131] missingRequested:count 8452
scalar Network.nodes[131] newGossipReceived:count 6081
scalar Network.nodes[131] newGossipEmitted:count 2
scalar Network.nodes[132] missingRequested:count 8315
scalar Network.nodes[132] newGossipReceived:count 6078
scalar Network.nodes[132] newGossipEmitted:count 5
scalar Network.nodes[133] missingRequested:count 8386
scalar Network.nodes[133] newGossipReceived:count 6079
scalar Network.nodes[133] newGossipEmitted:count 4
scalar Network.nodes[134] missingRequested:count 8002
scalar Network.nodes[134] newGossipReceived:count 6074
scalar Network.nodes[134] newGossipEmitted:count 9
scalar Network.nodes[135] missingRequested:count 7983
scalar Network.nodes[135] newGossipReceived:count 6077
scalar Network.nodes[135] newGossipEmitted:count 6
scalar Network.nodes[136] missingRequested:count 8022
scalar Network.nodes[136] newGossipReceived:count 6081
scalar Network.nodes[136] newGossipEmitted:count 2
scalar Network.nodes[137] missingRequested:count 8015
scalar Network.nodes[137] newGossipReceived:count 6081
scalar Network.nodes[137] newGossipEmitted:count 2
scalar Network.nodes[138] missingRequested:count 8186
scalar Network.nodes[138] newGossipReceived:count 6075
scalar Network.nodes[138] newGossipEmitted:count 8
scalar Network.nodes[139] missingRequested:count 8234
scalar Network.nodes[139] newGossipReceived:count 6077
scalar Network.nodes[139] newGossipEmitted:count 6
scalar Network.nodes[140] missingRequested:count 6356
scalar Network.nodes[140] newGossipReceived:count 6073
scalar Network.nodes[140] newGossipEmitted:count 10
scalar Network.nodes[141] missingRequested:count 8524
scalar Network.nodes[141] newGossipReceived:count 6075
scalar Network.nodes[141] newGossipEmitted:count 8
scalar Network.nodes[142] missingRequested:count 8508
scalar Network.nodes[142] newGossipReceived:count 6079
scalar Network.nodes[142] newGossipEmitted:count 4
scalar Network.nodes[143] missingRequested:count 8448
scalar Network.nodes[143] newGossipReceived:count 6081
scalar Network.nodes[143] newGossipEmitted:count 2
scalar Network.nodes[144] missingRequested:count 8601
scalar Network.nodes[144] newGossipReceived:count 6078
scalar Network.nodes[144] newGossipEmitted:count 5
scalar Network.nodes[145] missingRequested:count 7970
scalar Network.nodes[145] newGossipReceived:count 6079
scalar Network.nodes[145] newGossipEmitted:count 4
scalar Network.nodes[146] missingRequested:count 7800
scalar Network.nodes[146] newGossipReceived:count 6075
scalar Network.nodes[146] newGossipEmitted:count 8
scalar Network.nodes[147] missingRequested:count 8118
scalar Network.nodes[147] newGossipReceived:count 6076
scalar Network.nodes[147] newGossipEmitted:count 7
scalar Network.nodes[148] missingRequested:count 8207
scalar Network.nodes[148] newGossipReceived:count 6080
scalar Network.nodes[148] newGossipEmitted:count 3
scalar Network.nodes[149] missingRequested:count 8254
scalar Network.nodes[149] newGossipReceived:count 6071
scalar Network.nodes[149] newGossipEmitted:count 12
scalar Network.nodes[150] missingRequested:count 8645
scalar Network.nodes[150] newGossipReceived:count 6076
scalar Network.nodes[150] newGossipEmitted:count 7
scalar Network.nodes[151] missingRequested:count 8287
scalar Network.nodes[151] newGossipReceived:count 6078
scalar Network.nodes[151] newGossipEmitted:count 5
scalar Network.nodes[152] missingRequested:count 8207
scalar Network.nodes[152] newGossipReceived:count 6079
scalar Network.nodes[152] newGossipEmitted:count 4
scalar Network.nodes[153] missingRequested:count 8240
scalar Network.nodes[153] newGossipReceived:count 6075
scalar Network.nodes[153] newGossipEmitted:count 8
scalar Network.nodes[154] missingRequested:count 8492
scalar Network.nodes[154] newGossipReceived:count 6080
scalar Network.nodes[154] newGossipEmitted:count 3
scalar Network.nodes[155] missingRequested:count 8205
scalar Network.nodes[155] newGossipReceived:count 6079
scalar Network.nodes[155] newGossipEmitted:count 4
scalar Network.nodes[156] missingRequested:count 8114
scalar Network.nodes[156] newGossipReceived:count 6082
scalar Network.nodes[156] newGossipEmitted:count 1
scalar Network.nodes[157] missingRequested:count 7827
scalar Network.nodes[157] newGossipReceived:count 6079
scalar Network.nodes[157] newGossipEmitted:count 4
scalar Network.nodes[158] missingRequested:count 8115
scalar Network.nodes[158] newGossipReceived:count 6082
scalar Network.nodes[158] newGossipEmitted:count 1
scalar Network.nodes[159] missingRequested:count 7992
scalar Network.nodes[159] newGossipReceived:count 6080
scalar Network.nodes[159] newGossipEmitted:count 3
scalar Network.nodes[160] missingRequested:count 8411
scalar Network.nodes[160] newGossipReceived:count 6074
scalar Network.nodes[160] newGossipEmitted:count 9
scalar Network.nodes[161] missingRequested:count 7714
scalar Network.nodes[161] newGossipReceived:count 6079
scalar Network.nodes[161] newGossipEmitted:count 4
scalar Network.nodes[162] missingRequested:count 8361
scalar Network.nodes[162] newGossipReceived:count 6074
scalar Network.nodes[162] newGossipEmitted:count 9
scalar Network.nodes[163] missingRequested:count 8447
scalar Network.nodes[163] newGossipReceived:count 6081
scalar Network.nodes[163] newGossipEmitted:count 2
scalar Network.nodes[164] missingRequested:count 8179
scalar Network.nodes[164] newGossipReceived:count 6076
scalar Network.nodes[164] newGossipEmitted:count 7
scalar Network.nodes[165] missingRequested:count 8199
scalar Network.nodes[165] newGossipReceived:count 6077
scalar Network.nodes[165] newGossipEmitted:count 6
scalar Network.nodes[166] missingRequested:count 8420
scalar Network.nodes[166] newGossipReceived:count 6075
scalar Network.nodes[166] newGossipEmitted:count 8
scalar Network.nodes[167] missingRequested:count 8321
scalar Network.nodes[167] newGossipReceived:count 6076
scalar Network.nodes[167] newGossipEmitted:count 7
scalar Network.nodes[168] missingRequested:count 7700
scalar Network.nodes[168] newGossipReceived:count 6080
scalar Network.nodes[168] newGossipEmitted:count 3
scalar Network.nodes[169] missingRequested:count 8198
scalar Network.nodes[169] newGossipReceived:count 6076
scalar Network.nodes[169] newGossipEmitted:count 7
scalar Network.nodes[170] missingRequested:count 8208
scalar Network.nodes[170] newGossipReceived:count 6078
scalar Network.nodes[170] newGossipEmitted:count 5
scalar Network.nodes[171] missingRequested:count 8304
scalar Network.nodes[171] newGossipReceived:count 6076
scalar Network.nodes[171] newGossipEmitted:count 7
scalar Network.nodes[172] missingRequested:count 8083
scalar Network.nodes[172] newGossipReceived:count 6071
scalar Network.nodes[172] newGossipEmitted:count 12
scalar Network.nodes[173] missingRequested:count 8169
scalar Network.nodes[173] newGossipReceived:count 6075
scalar Network.nodes[173] newGossipEmitted:count 8
scalar Network.nodes[174] missingRequested:count 7843
scalar Network.nodes[174] newGossipReceived:count 6077
scalar Network.nodes[174] newGossipEmitted:count 6
scalar Network.nodes[175] missingRequested:count 8152
scalar Network.nodes[175] newGossipReceived:count 6077
scalar Network.nodes[175] newGossipEmitted:count 6
scalar Network.nodes[176] missingRequested:count 7754
scalar Network.nodes[176] newGossipReceived:count 6074
scalar Network.nodes[176] newGossipEmitted:count 9
scalar Network.nodes[177] missingRequested:count 7650
scalar Network.nodes[177] newGossipReceived:count 6075
scalar Network.nodes[177] newGossipEmitted:count 8
scalar Network.nodes[178] missingRequested:count 8620
scalar Network.nodes[178] newGossipReceived:count 6079
scalar Network.nodes[178] newGossipEmitted:count 4
scalar Network.nodes[179] missingRequested:count 8058
scalar Network.nodes[179] newGossipReceived:count 6079
scalar Network.nodes[179] newGossipEmitted:count 4
scalar Network.nodes[180] missingRequested:count 8379
scalar Network.nodes[180] newGossipReceived:count 6078
scalar Network.nodes[180] newGossipEmitted:count 5
scalar Network.nodes[181] missingRequested:count 8528
scalar Network.nodes[181] newGossipReceived:count 6079
scalar Network.nodes[181] newGossipEmitted:count 4
scalar Network.nodes[182] missingRequested:count 7833
scalar Network.nodes[182] newGossipReceived:count 6079
scalar Network.nodes[182] newGossipEmitted:count 4
scalar Network.nodes[183] missingRequested:count 8297
scalar Network.nodes[183] newGossipReceived:count 6076
scalar Network.nodes[183] newGossipEmitted:count 7
scalar Network.nodes[184] missingRequested:count 8350
scalar Network.nodes[184] newGossipReceived:count 6075
scalar Network.nodes[184] newGossipEmitted:count 8
scalar Network.nodes[185] missingRequested:count 8126
scalar Network.nodes[185] newGossipReceived:count 6080
scalar Network.nodes[185] newGossipEmitted:count 3
scalar Network.nodes[186] missingRequested:count 7563
scalar Network.nodes[186] newGossipReceived:count 6077
scalar Network.nodes[186] newGossipEmitted:count 6
scalar Network.nodes[187] missingRequested:count 7834
scalar Network.nodes[187] newGossipReceived:count 6074
scalar Network.nodes[187] newGossipEmitted:count 9
scalar Network.nodes[188] missingRequested:count 8282
scalar Network.nodes[188] newGossipReceived:count 6076
scalar Network.nodes[188] newGossipEmitted:count 7
scalar Network.nodes[189] missingRequested:count 8064
scalar Network.nodes[189] newGossipReceived:count 6078
scalar Network.nodes[189] newGossipEmitted:count 5
scalar Network.nodes[190] missingRequested:count 8621
scalar Network.nodes[190] newGossipReceived:count 6075
scalar Network.nodes[190] newGossipEmitted:count 8
scalar Network.nodes[191] missingRequested:count 8559
scalar Network.nodes[191] newGossipReceived:count 6077
scalar Network.nodes[191] newGossipEmitted:count 6
scalar Network.nodes[192] missingRequested:count 8049
scalar Network.nodes[192] newGossipReceived:count 6075
scalar Network.nodes[192] newGossipEmitted:count 8
scalar Network.nodes[193] missingRequested:count 8208
scalar Network.nodes[193] newGossipReceived:count 6076
scalar Network.nodes[193] newGossipEmitted:count 7
scalar Network.nodes[194] missingRequested:count 8208
scalar Network.nodes[194] newGossipReceived:count 6075
scalar Network.nodes[194] newGossipEmitted:count 8
scalar Network.nodes[195] missingRequested:count 8015
scalar Network.nodes[195] newGossipReceived:count 6077
scalar Network.nodes[195] newGossipEmitted:count 6
scalar Network.nodes[196] missingRequested:count 8175
scalar Network.nodes[196] newGossipReceived:count 6078
scalar Network.nodes[196] newGossipEmitted:count 5
scalar Network.nodes[197] missingRequested:count 8310
scalar Network.nodes[197] newGossipReceived:count 6079
scalar Network.nodes[197] newGossipEmitted:count 4
scalar Network.nodes[198] missingRequested:count 8332
scalar Network.nodes[198] newGossipReceived:count 6079
scalar Network.nodes[198] newGossipEmitted:count 4
scalar Network.nodes[199] missingRequested:count 8224
scalar Network.nodes[199] newGossipReceived:count 6077
scalar Network.nodes[199] newGossipEmitted:count 6
scalar Network.nodes[200] missingRequested:count 7759
scalar Network.nodes[200] newGossipReceived:count 6077
scalar Network.nodes[200] newGossipEmitted:count 6
scalar Network.nodes[201] missingRequested:count 8390
scalar Network.nodes[201] newGossipReceived:count 6076
scalar Network.nodes[201] newGossipEmitted:count 7
scalar Network.nodes[202] missingRequested:count 8172
scalar Network.nodes[202] newGossipReceived:count 6076
scalar Network.nodes[202] newGossipEmitted:count 7
scalar Network.nodes[203] missingRequested:count 7974
scalar Network.nodes[203] newGossipReceived:count 6078
scalar Network.nodes[203] newGossipEmitted:count 5
scalar Network.nodes[204] missingRequested:count 8371
scalar Network.nodes[204] newGossipReceived:count 6075
scalar Network.nodes[204] newGossipEmitted:count 8
scalar Network.nodes[205] missingRequested:count 7977
scalar Network.nodes[205] newGossipReceived:count 6079
scalar Network.nodes[205] newGossipEmitted:count 4
scalar Network.nodes[206] missingRequested:count 8237
scalar Network.nodes[206] newGossipReceived:count 6077
scalar Network.nodes[206] newGossipEmitted:count 6
scalar Network.nodes[207] missingRequested:count 8384
scalar Network.nodes[207] newGossipReceived:count 6075
scalar Network.nodes[207] newGossipEmitted:count 8
scalar Network.nodes[208] missingRequested:count 8047
scalar Network.nodes[208] newGossipReceived:count 6081
scalar Network.nodes[208] newGossipEmitted:count 2
scalar Network.nodes[209] missingRequested:count 8168
scalar Network.nodes[209] newGossipReceived:count 6075
scalar Network.nodes[209] newGossipEmitted:count 8
scalar Network.nodes[210] missingRequested:count 7991
scalar Network.nodes[210] newGossipReceived:count 6077
scalar Network.nodes[210] newGossipEmitted:count 6
scalar Network.nodes[211] missingRequested:count 8331
scalar Network.nodes[211] newGossipReceived:count 6078
scalar Network.nodes[211] newGossipEmitted:count 5
scalar Network.nodes[212] missingRequested:count 8484
scalar Network.nodes[212] newGossipReceived:count 6077
scalar Network.nodes[212] newGossipEmitted:count 6
scalar Network.nodes[213] missingRequested:count 8330
scalar Network.nodes[213] newGossipReceived:count 6075
scalar Network.nodes[213] newGossipEmitted:count 8
scalar Network.nodes[214] missingRequested:count 8517
scalar Network.nodes[214] newGossipReceived:count 6074
scalar Network.nodes[214] newGossipEmitted:count 9
scalar Network.nodes[215] missingRequested:count 8111
scalar Network.nodes[215] newGossipReceived:count 6079
scalar Network.nodes[215] newGossipEmitted:count 4
scalar Network.nodes[216] missingRequested:count 8416
scalar Network.nodes[216] newGossipReceived:count 6078
scalar Network.nodes[216] newGossipEmitted:count 5
scalar Network.nodes[217] missingRequested:count 8222
scalar Network.nodes[217] newGossipReceived:count 6079
scalar Network.nodes[217] newGossipEmitted:count 4
scalar Network.nodes[218] missingRequested:count 8514
scalar Network.nodes[218] newGossipReceived:count 6077
scalar Network.nodes[218] newGossipEmitted:count 6
scalar Network.nodes[219] missingRequested:count 8153
scalar Network.nodes[219] newGossipReceived:count 6080
scalar Network.nodes[219] newGossipEmitted:count 3
scalar Network.nodes[220] missingRequested:count 8169
scalar Network.nodes[220] newGossipReceived:count 6078
scalar Network.nodes[220] newGossipEmitted:count 5
scalar Network.nodes[221] missingRequested:count 8198
scalar Network.nodes[221] newGossipReceived:count 6078
scalar Network.nodes[221] newGossipEmitted:count 5
scalar Network.nodes[222] missingRequested:count 8287
scalar Network.nodes[222] newGossipReceived:count 6075
scalar Network.nodes[222] newGossipEmitted:count 8
scalar Network.nodes[223] missingRequested:count 8036
scalar Network.nodes[223] newGossipReceived:count 6081
scalar Network.nodes[223] newGossipEmitted:count 2
scalar Network.nodes[224] missingRequested:count 8164
scalar Network.nodes[224] newGossipReceived:count 6074
scalar Network.nodes[224] newGossipEmitted:count 9
scalar Network.nodes[225] missingRequested:count 7775
scalar Network.nodes[225] newGossipReceived:count 6075
scalar Network.nodes[225] newGossipEmitted:count 8
scalar Network.nodes[226] missingRequested:count 7667
scalar Network.nodes[226] newGossipReceived:count 6077
scalar Network.nodes[226] newGossipEmitted:count 6
scalar Network.nodes[227] missingRequested:count 8726
scalar Network.nodes[227] newGossipReceived:count 6076
scalar Network.nodes[227] newGossipEmitted:count 7
scalar Network.nodes[228] missingRequested:count 7692
scalar Network.nodes[228] newGossipReceived:count 6080
scalar Network.nodes[228] newGossipEmitted:count 3
scalar Network.nodes[229] missingRequested:count 8006
scalar Network.nodes[229] newGossipReceived:count 6076
scalar Network.nodes[229] newGossipEmitted:count 7
scalar Network.nodes[230] missingRequested:count 8400
scalar Network.nodes[230] newGossipReceived:count 6078
scalar Network.nodes[230] newGossipEmitted:count 5
scalar Network.nodes[231] missingRequested:count 8277
scalar Network.nodes[231] newGossipReceived:count 6079
scalar Network.nodes[231] newGossipEmitted:count 4
scalar Network.nodes[232] missingRequested:count 8254
scalar Network.nodes[232] newGossipReceived:count 6077
scalar Network.nodes[232] newGossipEmitted:count 6
scalar Network.nodes[233] missingRequested:count 8529
scalar Network.nodes[233] newGossipReceived:count 6075
scalar Network.nodes[233] newGossipEmitted:count 8
scalar Network.nodes[234] missingRequested:count 8313
scalar Network.nodes[234] newGossipReceived:count 6080
scalar Network.nodes[234] newGossipEmitted:count 3
scalar Network.nodes[235] missingRequested:count 8544
scalar Network.nodes[235] newGossipReceived:count 6079
scalar Network.nodes[235] newGossipEmitted:count 4
scalar Network.nodes[236] missingRequested:count 8508
scalar Network.nodes[236] newGossipReceived:count 6077
scalar Network.nodes[236] newGossipEmitted:count 6
scalar Network.nodes[237] missingRequested:count 7953
scalar Network.nodes[237] newGossipReceived:count 6077
scalar Network.nodes[237] newGossipEmitted:count 6
scalar Network.nodes[238] missingRequested:count 8349
scalar Network.nodes[238] newGossipReceived:count 6081
scalar Network.nodes[238] newGossipEmitted:count 2
scalar Network.nodes[239] missingRequested:count 8201
scalar Network.nodes[239] newGossipReceived:count 6075
scalar Network.nodes[239] newGossipEmitted:count 8
scalar Network.nodes[240] missingRequested:count 8338
scalar Network.nodes[240] newGossipReceived:count 6079
scalar Network.nodes[240] newGossipEmitted:count 4
scalar Network.nodes[241] missingRequested:count 7807
scalar Network.nodes[241] newGossipReceived:count 6073
scalar Network.nodes[241] newGossipEmitted:count 10
scalar Network.nodes[242] missingRequested:count 8376
scalar Network.nodes[242] newGossipReceived:count 6077
scalar Network.nodes[242] newGossipEmitted:count 6
scalar Network.nodes[243] missingRequested:count 8340
scalar Network.nodes[243] newGossipReceived:count 6075
scalar Network.nodes[243] newGossipEmitted:count 8
scalar Network.nodes[244] missingRequested:count 8392
scalar Network.nodes[244] newGossipReceived:count 6076
scalar Network.nodes[244] newGossipEmitted:count 7
scalar Network.nodes[245] missingRequested:count 8360
scalar Network.nodes[245] newGossipReceived:count 6079
scalar Network.nodes[245] newGossipEmitted:count 4
scalar Network.nodes[246] missingRequested:count 8293
scalar Network.nodes[246] newGossipReceived:count 6079
scalar Network.nodes[246] newGossipEmitted:count 4
scalar Network.nodes[247] missingRequested:count 8492
scalar Network.nodes[247] newGossipReceived:count 6079
scalar Network.nodes[247] newGossipEmitted:count 4
scalar Network.nodes[248] missingRequested:count 7920
scalar Network.nodes[248] newGossipReceived:count 6082
scalar Network.nodes[248] newGossipEmitted:count 1
scalar Network.nodes[249] missingRequested:count 8221
scalar Network.nodes[249] newGossipReceived:count 6078
scalar Network.nodes[249] newGossipEmitted:count 5
scalar Network.nodes[250] missingRequested:count 7741
scalar Network.nodes[250] newGossipReceived:count 6077
scalar Network.nodes[250] newGossipEmitted:count 6
scalar Network.nodes[251] missingRequested:count 8401
scalar Network.nodes[251] newGossipReceived:count 6074
scalar Network.nodes[251] newGossipEmitted:count 9
scalar Network.nodes[252] missingRequested:count 8203
scalar Network.nodes[252] newGossipReceived:count 6078
scalar Network.nodes[252] newGossipEmitted:count 5
scalar Network.nodes[253] missingRequested:count 8019
scalar Network.nodes[253] newGossipReceived:count 6076
scalar Network.nodes[253] newGossipEmitted:count 7
scalar Network.nodes[254] missingRequested:count 7593
scalar Network.nodes[254] newGossipReceived:count 6079
scalar Network.nodes[254] newGossipEmitted:count 4
scalar Network.nodes[255] missingRequested:count 7810
scalar Network.nodes[255] newGossipReceived:count 6080
scalar Network.nodes[255] newGossipEmitted:count 3
scalar Network.nodes[256] missingRequested:count 8128
scalar Network.nodes[256] newGossipReceived:count 6075
scalar Network.nodes[256] newGossipEmitted:count 8
scalar Network.nodes[257] missingRequested:count 8152
scalar Network.nodes[257] newGossipReceived:count 6074
scalar Network.nodes[257] newGossipEmitted:count 9
scalar Network.nodes[258] missingRequested:count 8345
scalar Network.nodes[258] newGossipReceived:count 6080
scalar Network.nodes[258] newGossipEmitted:count 3
scalar Network.nodes[259] missingRequested:count 8470
scalar Network.nodes[259] newGossipReceived:count 6077
scalar Network.nodes[259] newGossipEmitted:count 6
scalar Network.nodes[260] missingRequested:count 8213
scalar Network.nodes[260] newGossipReceived:count 6072
scalar Network.nodes[260] newGossipEmitted:count 11
scalar Network.nodes[261] missingRequested:count 8449
scalar Network.nodes[261] newGossipReceived:count 6075
scalar Network.nodes[261] newGossipEmitted:count 8
scalar Network.nodes[262] missingRequested:count 7792
scalar Network.nodes[262] newGossipReceived:count 6079
scalar Network.nodes[262] newGossipEmitted:count 4
scalar Network.nodes[263] missingRequested:count 8159
scalar Network.nodes[263] newGossipReceived:count 6081
scalar Network.nodes[263] newGossipEmitted:count 2
scalar Network.nodes[264] missingRequested:count 8177
scalar Network.nodes[264] newGossipReceived:count 6079
scalar Network.nodes[264] newGossipEmitted:count 4
scalar Network.nodes[265] missingRequested:count 8045
scalar Network.nodes[265] newGossipReceived:count 6078
scalar Network.nodes[265] newGossipEmitted:count 5
scalar Network.nodes[266] missingRequested:count 8527
scalar Network.nodes[266] newGossipReceived:count 6072
scalar Network.nodes[266] newGossipEmitted:count 11
scalar Network.nodes[267] missingRequested:count 8321
scalar Network.nodes[267] newGossipReceived:count 6081
scalar Network.nodes[267] newGossipEmitted:count 2
scalar Network.nodes[268] missingRequested:count 8352
scalar Network.nodes[268] newGossipReceived:count 6078
scalar Network.nodes[268] newGossipEmitted:count 5
scalar Network.nodes[269] missingRequested:count 8099
scalar Network.nodes[269] newGossipReceived:count 6078
scalar Network.nodes[269] newGossipEmitted:count 5
scalar Network.nodes[270] missingRequested:count 8344
scalar Network.nodes[270] newGossipReceived:count 6074
scalar Network.nodes[270] newGossipEmitted:count 9
scalar Network.nodes[271] missingRequested:count 8453
scalar Network.nodes[271] newGossipReceived:count 6070
scalar Network.nodes[271] newGossipEmitted:count 13
scalar Network.nodes[272] missingRequested:count 8113
scalar Network.nodes[272] newGossipReceived:count 6080
scalar Network.nodes[272] newGossipEmitted:count 3
scalar Network.nodes[273] missingRequested:count 8071
scalar Network.nodes[273] newGossipReceived:count 6079
scalar Network.nodes[273] newGossipEmitted:count 4
scalar Network.nodes[274] missingRequested:count 8142
scalar Network.nodes[274] newGossipReceived:count 6078
scalar Network.nodes[274] newGossipEmitted:count 5
scalar Network.nodes[275] missingRequested:count 8263
scalar Network.nodes[275] newGossipReceived:count 6079
scalar Network.nodes[275] newGossipEmitted:count 4
scalar Network.nodes[276] missingRequested:count 8191
scalar Network.nodes[276] newGossipReceived:count 6074
scalar Network.nodes[276] newGossipEmitted:count 9
scalar Network.nodes[277] missingRequested:count 8447
scalar Network.nodes[277] newGossipReceived:count 6078
scalar Network.nodes[277] newGossipEmitted:count 5
scalar Network.nodes[278] missingRequested:count 8319
scalar Network.nodes[278] newGossipReceived:count 6075
scalar Network.nodes[278] newGossipEmitted:count 8
scalar Network.nodes[279] missingRequested:count 8019
scalar Network.nodes[279] newGossipReceived:count 6078
scalar Network.nodes[279] newGossipEmitted:count 5
scalar Network.nodes[280] missingRequested:count 8507
scalar Network.nodes[280] newGossipReceived:count 6077
scalar Network.nodes[280] newGossipEmitted:count 6
scalar Network.nodes[281] missingRequested:count 7907
scalar Network.nodes[281] newGossipReceived:count 6078
scalar Network.nodes[281] newGossipEmitted:count 5
scalar Network.nodes[282] missingRequested:count 8331
scalar Network.nodes[282] newGossipReceived:count 6077
scalar Network.nodes[282] newGossipEmitted:count 6
scalar Network.nodes[283] missingRequested:count 8457
scalar Network.nodes[283] newGossipReceived:count 6080
scalar Network.nodes[283] newGossipEmitted:count 3
scalar Network.nodes[284] missingRequested:count 8087
scalar Network.nodes[284] newGossipReceived:count 6078
scalar Network.nodes[284] newGossipEmitted:count 5
scalar Network.nodes[285] missingRequested:count 8521
scalar Network.nodes[285] newGossipReceived:count 6075
scalar Network.nodes[285] newGossipEmitted:count 8
scalar Network.nodes[286] missingRequested:count 8153
scalar Network.nodes[286] newGossipReceived:count 6075
scalar Network.nodes[286] newGossipEmitted:count 8
scalar Network.nodes[287] missingRequested:count 8280
scalar Network.nodes[287] newGossipReceived:count 6077
scalar Network.nodes[287] newGossipEmitted:count 6
scalar Network.nodes[288] missingRequested:count 7966
scalar Network.nodes[288] newGossipReceived:count 6074
scalar Network.nodes[288] newGossipEmitted:count 9
scalar Network.nodes[289] missingRequested:count 8440
scalar Network.nodes[289] newGossipReceived:count 6079
scalar Network.nodes[289] newGossipEmitted:count 4
scalar Network.nodes[290] missingRequested:count 7950
scalar Network.nodes[290] newGossipReceived:count 6079
scalar Network.nodes[290] newGossipEmitted:count 4
scalar Network.nodes[291] missingRequested:count 8115
scalar Network.nodes[291] newGossipReceived:count 6079
scalar Network.nodes[291] newGossipEmitted:count 4
scalar Network.nodes[292] missingRequested:count 8290
scalar Network.nodes[292] newGossipReceived:count 6081
scalar Network.nodes[292] newGossipEmitted:count 2
scalar Network.nodes[293] missingRequested:count 7812
scalar Network.nodes[293] newGossipReceived:count 6076
scalar Network.nodes[293] newGossipEmitted:count 7
scalar Network.nodes[294] missingRequested:count 8445
scalar Network.nodes[294] newGossipReceived:count 6080
scalar Network.nodes[294] newGossipEmitted:count 3
scalar Network.nodes[295] missingRequested:count 8272
scalar Network.nodes[295] newGossipReceived:count 6076
scalar Network.nodes[295] newGossipEmitted:count 7
scalar Network.nodes[296] missingRequested:count 8309
scalar Network.nodes[296] newGossipReceived:count 6077
scalar Network.nodes[296] newGossipEmitted:count 6
scalar Network.nodes[297] missingRequested:count 8062
scalar Network.nodes[297] newGossipReceived:count 6077
scalar Network.nodes[297] newGossipEmitted:count 6
scalar Network.nodes[298] missingRequested:count 8289
scalar Network.nodes[298] newGossipReceived:count 6074
scalar Network.nodes[298] newGossipEmitted:count 9
scalar Network.nodes[299] missingRequested:count 8712
scalar Network.nodes[299] newGossipReceived:count 6076
scalar Network.nodes[299] newGossipEmitted:count 7
scalar Network.nodes[300] missingRequested:count 8522
scalar Network.nodes[300] newGossipReceived:count 6074
scalar Network.nodes[300] newGossipEmitted:count 9
scalar Network.nodes[301] missingRequested:count 7988
scalar Network.nodes[301] newGossipReceived:count 6076
scalar Network.nodes[301] newGossipEmitted:count 7
scalar Network.nodes[302] missingRequested:count 8407
scalar Network.nodes[302] newGossipReceived:count 6082
scalar Network.nodes[302] newGossipEmitted:count 1
scalar Network.nodes[303] missingRequested:count 8210
scalar Network.nodes[303] newGossipReceived:count 6081
scalar Network.nodes[303] newGossipEmitted:count 2
scalar Network.nodes[304] missingRequested:count 8203
scalar Network.nodes[304] newGossipReceived:count 6081
scalar Network.nodes[304] newGossipEmitted:count 2
scalar Network.nodes[305] missingRequested:count 8367
scalar Network.nodes[305] newGossipReceived:count 6079
scalar Network.nodes[305] newGossipEmitted:count 4
scalar Network.nodes[306] missingRequested:count 8456
scalar Network.nodes[306] newGossipReceived:count 6076
scalar Network.nodes[306] newGossipEmitted:count 7
scalar Network.nodes[307] missingRequested:count 7765
scalar Network.nodes[307] newGossipReceived:count 6076
scalar Network.nodes[307] newGossipEmitted:count 7
scalar Network.nodes[308] missingRequested:count 8601
scalar Network.nodes[308] newGossipReceived:count 6076
scalar Network.nodes[308] newGossipEmitted:count 7
scalar Network.nodes[309] missingRequested:count 8070
scalar Network.nodes[309] newGossipReceived:count 6077
scalar Network.nodes[309] newGossipEmitted:count 6
scalar Network.nodes[310] missingRequested:count 7861
scalar Network.nodes[310] newGossipReceived:count 6078
scalar Network.nodes[310] newGossipEmitted:count 5
scalar Network.nodes[311] missingRequested:count 7976
scalar Network.nodes[311] newGossipReceived:count 6079
scalar Network.nodes[311] newGossipEmitted:count 4
scalar Network.nodes[312] missingRequested:count 8293
scalar Network.nodes[312] newGossipReceived:count 6080
scalar Network.nodes[312] newGossipEmitted:count 3
scalar Network.nodes[313] missingRequested:count 8597
scalar Network.nodes[313] newGossipReceived:count 6081
scalar Network.nodes[313] newGossipEmitted:count 2
scalar Network.nodes[314] missingRequested:count 8129
scalar Network.nodes[314] newGossipReceived:count 6077
scalar Network.nodes[314] newGossipEmitted:count 6
scalar Network.nodes[315] missingRequested:count 8187
scalar Network.nodes[315] newGossipReceived:count 6076
scalar Network.nodes[315] newGossipEmitted:count 7
scalar Network.nodes[316] missingRequested:count 8506
scalar Network.nodes[316] newGossipReceived:count 6074
scalar Network.nodes[316] newGossipEmitted:count 9
scalar Network.nodes[317] missingRequested:count 8277
scalar Network.nodes[317] newGossipReceived:count 6077
scalar Network.nodes[317] newGossipEmitted:count 6
scalar Network.nodes[318] missingRequested:count 8290
scalar Network.nodes[318] newGossipReceived:count 6078
scalar Network.nodes[318] newGossipEmitted:count 5
scalar Network.nodes[319] missingRequested:count 8292
scalar Network.nodes[319] newGossipReceived:count 6079
scalar Network.nodes[319] newGossipEmitted:count 4
scalar Network.nodes[320] missingRequested:count 8369
scalar Network.nodes[320] newGossipReceived:count 6079
scalar Network.nodes[320] newGossipEmitted:count 4
scalar Network.nodes[321] missingRequested:count 8401
scalar Network.nodes[321] newGossipReceived:count 6076
scalar Network.nodes[321] newGossipEmitted:count 7
scalar Network.nodes[322] missingRequested:count 8440
scalar Network.nodes[322] newGossipReceived:count 6074
scalar Network.nodes[322] newGossipEmitted:count 9
scalar Network.nodes[323] missingRequested:count 8450
scalar Network.nodes[323] newGossipReceived:count 6077
scalar Network.nodes[323] newGossipEmitted:count 6
scalar Network.nodes[324] missingRequested:count 8145
scalar Network.nodes[324] newGossipReceived:count 6079
scalar Network.nodes[324] newGossipEmitted:count 4
scalar Network.nodes[325] missingRequested:count 8239
scalar Network.nodes[325] newGossipReceived:count 6077
scalar Network.nodes[325] newGossipEmitted:count 6
scalar Network.nodes[326] missingRequested:count 8323
scalar Network.nodes[326] newGossipReceived:count 6081
scalar Network.nodes[326] newGossipEmitted:count 2
scalar Network.nodes[327] missingRequested:count 8405
scalar Network.nodes[327] newGossipReceived:count 6074
scalar Network.nodes[327] newGossipEmitted:count 9
scalar Network.nodes[328] missingRequested:count 8191
scalar Network.nodes[328] newGossipReceived:count 6078
scalar Network.nodes[328] newGossipEmitted:count 5
scalar Network.nodes[329] missingRequested:count 8398
scalar Network.nodes[329] newGossipReceived:count 6073
scalar Network.nodes[329] newGossipEmitted:count 10
scalar Network.nodes[330] missingRequested:count 8398
scalar Network.nodes[330] newGossipReceived:count 6071
scalar Network.nodes[330] newGossipEmitted:count 12
scalar Network.nodes[331] missingRequested:count 8380
scalar Network.nodes[331] newGossipReceived:count 6080
scalar Network.nodes[331] newGossipEmitted:count 3
scalar Network.nodes[332] missingRequested:count 7917
scalar Network.nodes[332] newGossipReceived:count 6078
scalar Network.nodes[332] newGossipEmitted:count 5
scalar Network.nodes[333] missingRequested:count 8393
scalar Network.nodes[333] newGossipReceived:count 6074
scalar Network.nodes[333] newGossipEmitted:count 9
scalar Network.nodes[334] missingRequested:count 8139
scalar Network.nodes[334] newGossipReceived:count 6076
scalar Network.nodes[334] newGossipEmitted:count 7
scalar Network.nodes[335] missingRequested:count 8274
scalar Network.nodes[335] newGossipReceived:count 6077
scalar Network.nodes[335] newGossipEmitted:count 6
scalar Network.nodes[336] missingRequested:count 8030
scalar Network.nodes[336] newGossipReceived:count 6079
scalar Network.nodes[336] newGossipEmitted:count 4
scalar Network.nodes[337] missingRequested:count 7433
scalar Network.nodes[337] newGossipReceived:count 6079
scalar Network.nodes[337] newGossipEmitted:count 4
scalar Network.nodes[338] missingRequested:count 8220
scalar Network.nodes[338] newGossipReceived:count 6077
scalar Network.nodes[338] newGossipEmitted:count 6
scalar Network.nodes[339] missingRequested:count 8573
scalar Network.nodes[339] newGossipReceived:count 6079
scalar Network.nodes[339] newGossipEmitted:count 4
scalar Network.nodes[340] missingRequested:count 8332
scalar Network.nodes[340] newGossipReceived:count 6072
scalar Network.nodes[340] newGossipEmitted:count 11
scalar Network.nodes[341] missingRequested:count 8125
scalar Network.nodes[341] newGossipReceived:count 6078
scalar Network.nodes[341] newGossipEmitted:count 5
scalar Network.nodes[342] missingRequested:count 8307
scalar Network.nodes[342] newGossipReceived:count 6073
scalar Network.nodes[342] newGossipEmitted:count 10
scalar Network.nodes[343] missingRequested:count 8196
scalar Network.nodes[343] newGossipReceived:count 6078
scalar Network.nodes[343] newGossipEmitted:count 5
scalar Network.nodes[344] missingRequested:count 7903
scalar Network.nodes[344] newGossipReceived:count 6076
scalar Network.nodes[344] newGossipEmitted:count 7
scalar Network.nodes[345] missingRequested:count 7725
scalar Network.nodes[345] newGossipReceived:count 6071
scalar Network.nodes[345] newGossipEmitted:count 12
scalar Network.nodes[346] missingRequested:count 8385
scalar Network.nodes[346] newGossipReceived:count 6072
scalar Network.nodes[346] newGossipEmitted:count 11
scalar Network.nodes[347] missingRequested:count 8081
scalar Network.nodes[347] newGossipReceived:count 6076
scalar Network.nodes[347] newGossipEmitted:count 7
scalar Network.nodes[348] missingRequested:count 8524
scalar Network.nodes[348] newGossipReceived:count 6077
scalar Network.nodes[348] newGossipEmitted:count 6
scalar Network.nodes[349] missingRequested:count 8386
scalar Network.nodes[349] newGossipReceived:count 6077
scalar Network.nodes[349] newGossipEmitted:count 6
scalar Network.nodes[350] missingRequested:count 8360
scalar Network.nodes[350] newGossipReceived:count 6075
scalar Network.nodes[350] newGossipEmitted:count 8
scalar Network.nodes[351] missingRequested:count 8132
scalar Network.nodes[351] newGossipReceived:count 6078
scalar Network.nodes[351] newGossipEmitted:count 5
scalar Network.nodes[352] missingRequested:count 8309
scalar Network.nodes[352] newGossipReceived:count 6081
scalar Network.nodes[352] newGossipEmitted:count 2
scalar Network.nodes[353] missingRequested:count 10492
scalar Network.nodes[353] newGossipReceived:count 6074
scalar Network.nodes[353] newGossipEmitted:count 9
scalar Network.nodes[354] missingRequested:count 8437
scalar Network.nodes[354] newGossipReceived:count 6079
scalar Network.nodes[354] newGossipEmitted:count 4
scalar Network.nodes[355] missingRequested:count 8474
scalar Network.nodes[355] newGossipReceived:count 6077
scalar Network.nodes[355] newGossipEmitted:count 6
scalar Network.nodes[356] missingRequested:count 8008
scalar Network.nodes[356] newGossipReceived:count 6077
scalar Network.nodes[356] newGossipEmitted:count 6
scalar Network.nodes[357] missingRequested:count 8423
scalar Network.nodes[357] newGossipReceived:count 6079
scalar Network.nodes[357] newGossipEmitted:count 4
scalar Network.nodes[358] missingRequested:count 8353
scalar Network.nodes[358] newGossipReceived:count 6078
scalar Network.nodes[358] newGossipEmitted:count 5
scalar Network.nodes[359] missingRequested:count 8380
scalar Network.nodes[359] newGossipReceived:count 6074
scalar Network.nodes[359] newGossipEmitted:count 9
scalar Network.nodes[360] missingRequested:count 8369
scalar Network.nodes[360] newGossipReceived:count 6074
scalar Network.nodes[360] newGossipEmitted:count 9
scalar Network.nodes[361] missingRequested:count 8104
scalar Network.nodes[361] newGossipReceived:count 6074
scalar Network.nodes[361] newGossipEmitted:count 9
scalar Network.nodes[362] missingRequested:count 8008
scalar Network.nodes[362] newGossipReceived:count 6079
scalar Network.nodes[362] newGossipEmitted:count 4
scalar Network.nodes[363] missingRequested:count 8592
scalar Network.nodes[363] newGossipReceived:count 6080
scalar Network.nodes[363] newGossipEmitted:count 3
scalar Network.nodes[364] missingRequested:count 7504
scalar Network.nodes[364] newGossipReceived:count 6074
scalar Network.nodes[364] newGossipEmitted:count 9
scalar Network.nodes[365] missingRequested:count 7908
scalar Network.nodes[365] newGossipReceived:count 6073
scalar Network.nodes[365] newGossipEmitted:count 10
scalar Network.nodes[366] missingRequested:count 8286
scalar Network.nodes[366] newGossipReceived:count 6072
scalar Network.nodes[366] newGossipEmitted:count 11
scalar Network.nodes[367] missingRequested:count 8390
scalar Network.nodes[367] newGossipReceived:count 6078
scalar Network.nodes[367] newGossipEmitted:count 5
scalar Network.nodes[368] missingRequested:count 8418
scalar Network.nodes[368] newGossipReceived:count 6078
scalar Network.nodes[368] newGossipEmitted:count 5
scalar Network.nodes[369] missingRequested:count 8598
scalar Network.nodes[369] newGossipReceived:count 6074
scalar Network.nodes[369] newGossipEmitted:count 9
scalar Network.nodes[370] missingRequested:count 8105
scalar Network.nodes[370] newGossipReceived:count 6079
scalar Network.nodes[370] newGossipEmitted:count 4
scalar Network.nodes[371] missingRequested:count 7988
scalar Network.nodes[371] newGossipReceived:count 6080
scalar Network.nodes[371] newGossipEmitted:count 3
scalar Network.nodes[372] missingRequested:count 7859
scalar Network.nodes[372] newGossipReceived:count 6075
scalar Network.nodes[372] newGossipEmitted:count 8
scalar Network.nodes[373] missingRequested:count 8222
scalar Network.nodes[373] newGossipReceived:count 6074
scalar Network.nodes[373] newGossipEmitted:count 9
scalar Network.nodes[374] missingRequested:count 8531
scalar Network.nodes[374] newGossipReceived:count 6082
scalar Network.nodes[374] newGossipEmitted:count 1
scalar Network.nodes[375] missingRequested:count 8483
scalar Network.nodes[375] newGossipReceived:count 6077
scalar Network.nodes[375] newGossipEmitted:count 6
scalar Network.nodes[376] missingRequested:count 8301
scalar Network.nodes[376] newGossipReceived:count 6077
scalar Network.nodes[376] newGossipEmitted:count 6
scalar Network.nodes[377] missingRequested:count 8289
scalar Network.nodes[377] newGossipReceived:count 6075
scalar Network.nodes[377] newGossipEmitted:count 8
scalar Network.nodes[378] missingRequested:count 8363
scalar Network.nodes[378] newGossipReceived:count 6075
scalar Network.nodes[378] newGossipEmitted:count 8
scalar Network.nodes[379] missingRequested:count 8356
scalar Network.nodes[379] newGossipReceived:count 6077
scalar Network.nodes[379] newGossipEmitted:count 6
scalar Network.nodes[380] missingRequested:count 7961
scalar Network.nodes[380] newGossipReceived:count 6079
scalar Network.nodes[380] newGossipEmitted:count 4
scalar Network.nodes[381] missingRequested:count 8185
scalar Network.nodes[381] newGossipReceived:count 6079
scalar Network.nodes[381] newGossipEmitted:count 4
scalar Network.nodes[382] missingRequested:count 8325
scalar Network.nodes[382] newGossipReceived:count 6076
scalar Network.nodes[382] newGossipEmitted:count 7
scalar Network.nodes[383] missingRequested:count 8053
scalar Network.nodes[383] newGossipReceived:count 6072
scalar Network.nodes[383] newGossipEmitted:count 11
scalar Network.nodes[384] missingRequested:count 8135
scalar Network.nodes[384] newGossipReceived:count 6078
scalar Network.nodes[384] newGossipEmitted:count 5
scalar Network.nodes[385] missingRequested:count 8289
scalar Network.nodes[385] newGossipReceived:count 6077
scalar Network.nodes[385] newGossipEmitted:count 6
scalar Network.nodes[386] missingRequested:count 8347
scalar Network.nodes[386] newGossipReceived:count 6077
scalar Network.nodes[386] newGossipEmitted:count 6
scalar Network.nodes[387] missingRequested:count 7795
scalar Network.nodes[387] newGossipReceived:count 6075
scalar Network.nodes[387] newGossipEmitted:count 8
scalar Network.nodes[388] missingRequested:count 8477
scalar Network.nodes[388] newGossipReceived:count 6077
scalar Network.nodes[388] newGossipEmitted:count 6
scalar Network.nodes[389] missingRequested:count 8610
scalar Network.nodes[389] newGossipReceived:count 6076
scalar Network.nodes[389] newGossipEmitted:count 7
scalar Network.nodes[390] missingRequested:count 8264
scalar Network.nodes[390] newGossipReceived:count 6076
scalar Network.nodes[390] newGossipEmitted:count 7
scalar Network.nodes[391] missingRequested:count 8189
scalar Network.nodes[391] newGossipReceived:count 6079
scalar Network.nodes[391] newGossipEmitted:count 4
scalar Network.nodes[392] missingRequested:count 8204
scalar Network.nodes[392] newGossipReceived:count 6078
scalar Network.nodes[392] newGossipEmitted:count 5
scalar Network.nodes[393] missingRequested:count 8105
scalar Network.nodes[393] newGossipReceived:count 6079
scalar Network.nodes[393] newGossipEmitted:count 4
scalar Network.nodes[394] missingRequested:count 8318
scalar Network.nodes[394] newGossipReceived:count 6075
scalar Network.nodes[394] newGossipEmitted:count 8
scalar Network.nodes[395] missingRequested:count 8452
scalar Network.nodes[395] newGossipReceived:count 6077
scalar Network.nodes[395] newGossipEmitted:count 6
scalar Network.nodes[396] missingRequested:count 7903
scalar Network.nodes[396] newGossipReceived:count 6078
scalar Network.nodes[396] newGossipEmitted:count 5
scalar Network.nodes[397] missingRequested:count 8146
scalar Network.nodes[397] newGossipReceived:count 6081
scalar Network.nodes[397] newGossipEmitted:count 2
scalar Network.nodes[398] missingRequested:count 8399
scalar Network.nodes[398] newGossipReceived:count 6076
scalar Network.nodes[398] newGossipEmitted:count 7
scalar Network.nodes[399] missingRequested:count 8257
scalar Network.nodes[399] newGossipReceived:count 6074
scalar Network.nodes[399] newGossipEmitted:count 9
scalar Network.nodes[400] missingRequested:count 8141
scalar Network.nodes[400] newGossipReceived:count 6072
scalar Network.nodes[400] newGossipEmitted:count 11
scalar Network.nodes[401] missingRequested:count 8231
scalar Network.nodes[401] newGossipReceived:count 6080
scalar Network.nodes[401] newGossipEmitted:count 3
scalar Network.nodes[402] missingRequested:count 8328
scalar Network.nodes[402] newGossipReceived:count 6079
scalar Network.nodes[402] newGossipEmitted:count 4
scalar Network.nodes[403] missingRequested:count 8216
scalar Network.nodes[403] newGossipReceived:count 6076
scalar Network.nodes[403] newGossipEmitted:count 7
scalar Network.nodes[404] missingRequested:count 8268
scalar Network.nodes[404] newGossipReceived:count 6075
scalar Network.nodes[404] newGossipEmitted:count 8
scalar Network.nodes[405] missingRequested:count 8453
scalar Network.nodes[405] newGossipReceived:count 6077
scalar Network.nodes[405] newGossipEmitted:count 6
scalar Network.nodes[406] missingRequested:count 8300
scalar Network.nodes[406] newGossipReceived:count 6077
scalar Network.nodes[406] newGossipEmitted:count 6
scalar Network.nodes[407] missingRequested:count 8412
scalar Network.nodes[407] newGossipReceived:count 6075
scalar Network.nodes[407] newGossipEmitted:count 8
scalar Network.nodes[408] missingRequested:count 7973
scalar Network.nodes[408] newGossipReceived:count 6077
scalar Network.nodes[408] newGossipEmitted:count 6
scalar Network.nodes[409] missingRequested:count 8045
scalar Network.nodes[409] newGossipReceived:count 6076
scalar Network.nodes[409] newGossipEmitted:count 7
scalar Network.nodes[410] missingRequested:count 7937
scalar Network.nodes[410] newGossipReceived:count 6076
scalar Network.nodes[410] newGossipEmitted:count 7
scalar Network.nodes[411] missingRequested:count 8304
scalar Network.nodes[411] newGossipReceived:count 6077
scalar Network.nodes[411] newGossipEmitted:count 6
scalar Network.nodes[412] missingRequested:count 8140
scalar Network.nodes[412] newGossipReceived:count 6080
scalar Network.nodes[412] newGossipEmitted:count 3
scalar Network.nodes[413] missingRequested:count 8320
scalar Network.nodes[413] newGossipReceived:count 6076
scalar Network.nodes[413] newGossipEmitted:count 7
scalar Network.nodes[414] missingRequested:count 8073
scalar Network.nodes[414] newGossipReceived:count 6073
scalar Network.nodes[414] newGossipEmitted:count 10
scalar Network.nodes[415] missingRequested:count 8351
scalar Network.nodes[415] newGossipReceived:count 6076
scalar Network.nodes[415] newGossipEmitted:count 7
scalar Network.nodes[416] missingRequested:count 8329
scalar Network.nodes[416] newGossipReceived:count 6078
scalar Network.nodes[416] newGossipEmitted:count 5
scalar Network.nodes[417] missingRequested:count 8623
scalar Network.nodes[417] newGossipReceived:count 6075
scalar Network.nodes[417] newGossipEmitted:count 8
scalar Network.nodes[418] missingRequested:count 8131
scalar Network.nodes[418] newGossipReceived:count 6080
scalar Network.nodes[418] newGossipEmitted:count 3
scalar Network.nodes[419] missingRequested:count 8302
scalar Network.nodes[419] newGossipReceived:count 6076
scalar Network.nodes[419] newGossipEmitted:count 7
scalar Network.nodes[420] missingRequested:count 8348
scalar Network.nodes[420] newGossipReceived:count 6078
scalar Network.nodes[420] newGossipEmitted:count 5
scalar Network.nodes[421] missingRequested:count 8238
scalar Network.nodes[421] newGossipReceived:count 6076
scalar Network.nodes[421] newGossipEmitted:count 7
scalar Network.nodes[422] missingRequested:count 8183
scalar Network.nodes[422] newGossipReceived:count 6076
scalar Network.nodes[422] newGossipEmitted:count 7
scalar Network.nodes[423] missingRequested:count 8023
scalar Network.nodes[423] newGossipReceived:count 6078
scalar Network.nodes[423] newGossipEmitted:count 5
scalar Network.nodes[424] missingRequested:count 8523
scalar Network.nodes[424] newGossipReceived:count 6079
scalar Network.nodes[424] newGossipEmitted:count 4
scalar Network.nodes[425] missingRequested:count 8128
scalar Network.nodes[425] newGossipReceived:count 6076
scalar Network.nodes[425] newGossipEmitted:count 7
scalar Network.nodes[426] missingRequested:count 8137
scalar Network.nodes[426] newGossipReceived:count 6072
scalar Network.nodes[426] newGossipEmitted:count 11
scalar Network.nodes[427] missingRequested:count 7958
scalar Network.nodes[427] newGossipReceived:count 6077
scalar Network.nodes[427] newGossipEmitted:count 6
scalar Network.nodes[428] missingRequested:count 8263
scalar Network.nodes[428] newGossipReceived:count 6075
scalar Network.nodes[428] newGossipEmitted:count 8
scalar Network.nodes[429] missingRequested:count 8503
scalar Network.nodes[429] newGossipReceived:count 6075
scalar Network.nodes[429] newGossipEmitted:count 8
scalar Network.nodes[430] missingRequested:count 8103
scalar Network.nodes[430] newGossipReceived:count 6073
scalar Network.nodes[430] newGossipEmitted:count 10
scalar Network.nodes[431] missingRequested:count 8166
scalar Network.nodes[431] newGossipReceived:count 6078
scalar Network.nodes[431] newGossipEmitted:count 5
scalar Network.nodes[432] missingRequested:count 8185
scalar Network.nodes[432] newGossipReceived:count 6081
scalar Network.nodes[432] newGossipEmitted:count 2
scalar Network.nodes[433] missingRequested:count 8014
scalar Network.nodes[433] newGossipReceived:count 6076
scalar Network.nodes[433] newGossipEmitted:count 7
scalar Network.nodes[434] missingRequested:count 8495
scalar Network.nodes[434] newGossipReceived:count 6080
scalar Network.nodes[434] newGossipEmitted:count 3
scalar Network.nodes[435] missingRequested:count 8244
scalar Network.nodes[435] newGossipReceived:count 6074
scalar Network.nodes[435] newGossipEmitted:count 9
scalar Network.nodes[436] missingRequested:count 8416
scalar Network.nodes[436] newGossipReceived:count 6078
scalar Network.nodes[436] newGossipEmitted:count 5
scalar Network.nodes[437] missingRequested:count 8153
scalar Network.nodes[437] newGossipReceived:count 6076
scalar Network.nodes[437] newGossipEmitted:count 7
scalar Network.nodes[438] missingRequested:count 8036
scalar Network.nodes[438] newGossipReceived:count 6077
scalar Network.nodes[438] newGossipEmitted:count 6
scalar Network.nodes[439] missingRequested:count 8355
scalar Network.nodes[439] newGossipReceived:count 6082
scalar Network.nodes[439] newGossipEmitted:count 1
scalar Network.nodes[440] missingRequested:count 8246
scalar Network.nodes[440] newGossipReceived:count 6077
scalar Network.nodes[440] newGossipEmitted:count 6
scalar Network.nodes[441] missingRequested:count 8313
scalar Network.nodes[441] newGossipReceived:count 6079
scalar Network.nodes[441] newGossipEmitted:count 4
scalar Network.nodes[442] missingRequested:count 8010
scalar Network.nodes[442] newGossipReceived:count 6080
scalar Network.nodes[442] newGossipEmitted:count 3
scalar Network.nodes[443] missingRequested:count 8265
scalar Network.nodes[443] newGossipReceived:count 6076
scalar Network.nodes[443] newGossipEmitted:count 7
scalar Network.nodes[444] missingRequested:count 8416
scalar Network.nodes[444] newGossipReceived:count 6076
scalar Network.nodes[444] newGossipEmitted:count 7
scalar Network.nodes[445] missingRequested:count 8372
scalar Network.nodes[445] newGossipReceived:count 6075
scalar Network.nodes[445] newGossipEmitted:count 8
scalar Network.nodes[446] missingRequested:count 8322
scalar Network.nodes[446] newGossipReceived:count 6078
scalar Network.nodes[446] newGossipEmitted:count 5
scalar Network.nodes[447] missingRequested:count 8473
scalar Network.nodes[447] newGossipReceived:count 6080
scalar Network.nodes[447] newGossipEmitted:count 3
scalar Network.nodes[448] missingRequested:count 8023
scalar Network.nodes[448] newGossipReceived:count 6075
scalar Network.nodes[448] newGossipEmitted:count 8
scalar Network.nodes[449] missingRequested:count 8194
scalar Network.nodes[449] newGossipReceived:count 6078
scalar Network.nodes[449] newGossipEmitted:count 5
scalar Network.nodes[450] missingRequested:count 8411
scalar Network.nodes[450] newGossipReceived:count 6074
scalar Network.nodes[450] newGossipEmitted:count 9
scalar Network.nodes[451] missingRequested:count 8070
scalar Network.nodes[451] newGossipReceived:count 6080
scalar Network.nodes[451] newGossipEmitted:count 3
scalar Network.nodes[452] missingRequested:count 7760
scalar Network.nodes[452] newGossipReceived:count 6079
scalar Network.nodes[452] newGossipEmitted:count 4
scalar Network.nodes[453] missingRequested:count 8185
scalar Network.nodes[453] newGossipReceived:count 6077
scalar Network.nodes[453] newGossipEmitted:count 6
scalar Network.nodes[454] missingRequested:count 8322
scalar Network.nodes[454] newGossipReceived:count 6072
scalar Network.nodes[454] newGossipEmitted:count 11
scalar Network.nodes[455] missingRequested:count 8278
scalar Network.nodes[455] newGossipReceived:count 6079
scalar Network.nodes[455] newGossipEmitted:count 4
scalar Network.nodes[456] missingRequested:count 8141
scalar Network.nodes[456] newGossipReceived:count 6073
scalar Network.nodes[456] newGossipEmitted:count 10
scalar Network.nodes[457] missingRequested:count 8204
scalar Network.nodes[457] newGossipReceived:count 6072
scalar Network.nodes[457] newGossipEmitted:count 11
scalar Network.nodes[458] missingRequested:count 8242
scalar Network.nodes[458] newGossipReceived:count 6078
scalar Network.nodes[458] newGossipEmitted:count 5
scalar Network.nodes[459] missingRequested:count 8321
scalar Network.nodes[459] newGossipReceived:count 6075
scalar Network.nodes[459] newGossipEmitted:count 8
scalar Network.nodes[460] missingRequested:count 8115
scalar Network.nodes[460] newGossipReceived:count 6073
scalar Network.nodes[460] newGossipEmitted:count 10
scalar Network.nodes[461] missingRequested:count 8252
scalar Network.nodes[461] newGossipReceived:count 6077
scalar Network.nodes[461] newGossipEmitted:count 6
scalar Network.nodes[462] missingRequested:count 8430
scalar Network.nodes[462] newGossipReceived:count 6075
scalar Network.nodes[462] newGossipEmitted:count 8
scalar Network.nodes[463] missingRequested:count 8112
scalar Network.nodes[463] newGossipReceived:count 6078
scalar Network.nodes[463] newGossipEmitted:count 5
scalar Network.nodes[464] missingRequested:count 8405
scalar Network.nodes[464] newGossipReceived:count 6072
scalar Network.nodes[464] newGossipEmitted:count 11
scalar Network.nodes[465] missingRequested:count 8004
scalar Network.nodes[465] newGossipReceived:count 6079
scalar Network.nodes[465] newGossipEmitted:count 4
scalar Network.nodes[466] missingRequested:count 8444
scalar Network.nodes[466] newGossipReceived:count 6076
scalar Network.nodes[466] newGossipEmitted:count 7
scalar Network.nodes[467] missingRequested:count 8388
scalar Network.nodes[467] newGossipReceived:count 6080
scalar Network.nodes[467] newGossipEmitted:count 3
scalar Network.nodes[468] missingRequested:count 7732
scalar Network.nodes[468] newGossipReceived:count 6069
scalar Network.nodes[468] newGossipEmitted:count 14
scalar Network.nodes[469] missingRequested:count 8319
scalar Network.nodes[469] newGossipReceived:count 6078
scalar Network.nodes[469] newGossipEmitted:count 5
scalar Network.nodes[470] missingRequested:count 8099
scalar Network.nodes[470] newGossipReceived:count 6075
scalar Network.nodes[470] newGossipEmitted:count 8
scalar Network.nodes[471] missingRequested:count 8122
scalar Network.nodes[471] newGossipReceived:count 6080
scalar Network.nodes[471] newGossipEmitted:count 3
scalar Network.nodes[472] missingRequested:count 8335
scalar Network.nodes[472] newGossipReceived:count 6081
scalar Network.nodes[472] newGossipEmitted:count 2
scalar Network.nodes[473] missingRequested:count 8207
scalar Network.nodes[473] newGossipReceived:count 6073
scalar Network.nodes[473] newGossipEmitted:count 10
scalar Network.nodes[474] missingRequested:count 8224
scalar Network.nodes[474] newGossipReceived:count 6080
scalar Network.nodes[474] newGossipEmitted:count 3
scalar Network.nodes[475] missingRequested:count 8108
scalar Network.nodes[475] newGossipReceived:count 6075
scalar Network.nodes[475] newGossipEmitted:count 8
scalar Network.nodes[476] missingRequested:count 8230
scalar Network.nodes[476] newGossipReceived:count 6080
scalar Network.nodes[476] newGossipEmitted:count 3
scalar Network.nodes[477] missingRequested:count 8382
scalar Network.nodes[477] newGossipReceived:count 6076
scalar Network.nodes[477] newGossipEmitted:count 7
scalar Network.nodes[478] missingRequested:count 8315
scalar Network.nodes[478] newGossipReceived:count 6082
scalar Network.nodes[478] newGossipEmitted:count 1
scalar Network.nodes[479] missingRequested:count 8300
scalar Network.nodes[479] newGossipReceived:count 6075
scalar Network.nodes[479] newGossipEmitted:count 8
scalar Network.nodes[480] missingRequested:count 8112
scalar Network.nodes[480] newGossipReceived:count 6074
scalar Network.nodes[480] newGossipEmitted:count 9
scalar Network.nodes[481] missingRequested:count 8151
scalar Network.nodes[481] newGossipReceived:count 6079
scalar Network.nodes[481] newGossipEmitted:count 4
scalar Network.nodes[482] missingRequested:count 8189
scalar Network.nodes[482] newGossipReceived:count 6078
scalar Network.nodes[482] newGossipEmitted:count 5
scalar Network.nodes[483] missingRequested:count 8643
scalar Network.nodes[483] newGossipReceived:count 6076
scalar Network.nodes[483] newGossipEmitted:count 7
scalar Network.nodes[484] missingRequested:count 8322
scalar Network.nodes[484] newGossipReceived:count 6079
scalar Network.nodes[484] newGossipEmitted:count 4
scalar Network.nodes[485] missingRequested:count 8191
scalar Network.nodes[485] newGossipReceived:count 6075
scalar Network.nodes[485] newGossipEmitted:count 8
scalar Network.nodes[486] missingRequested:count 8143
scalar Network.nodes[486] newGossipReceived:count 6079
scalar Network.nodes[486] newGossipEmitted:count 4
scalar Network.nodes[487] missingRequested:count 8390
scalar Network.nodes[487] newGossipReceived:count 6078
scalar Network.nodes[487] newGossipEmitted:count 5
scalar Network.nodes[488] missingRequested:count 8239
scalar Network.nodes[488] newGossipReceived:count 6078
scalar Network.nodes[488] newGossipEmitted:count 5
scalar Network.nodes[489] missingRequested:count 8320
scalar Network.nodes[489] newGossipReceived:count 6080
scalar Network.nodes[489] newGossipEmitted:count 3
scalar Network.nodes[490] missingRequested:count 8459
[...]
scalar Network.nodes[881] newGossipEmitted:count 5
scalar Network.nodes[882] missingRequested:count 7861
scalar Network.nodes[882] newGossipReceived:count 6071
scalar Network.nodes[882] newGossipEmitted:count 12
scalar Network.nodes[883] missingRequested:count 8016
scalar Network.nodes[883] newGossipReceived:count 6077
scalar Network.nodes[883] newGossipEmitted:count 6
scalar Network.nodes[884] missingRequested:count 8308
scalar Network.nodes[884] newGossipReceived:count 6077
scalar Network.nodes[884] newGossipEmitted:count 6
scalar Network.nodes[885] missingRequested:count 8028
scalar Network.nodes[885] newGossipReceived:count 6076
scalar Network.nodes[885] newGossipEmitted:count 7
scalar Network.nodes[886] missingRequested:count 8291
scalar Network.nodes[886] newGossipReceived:count 6076
scalar Network.nodes[886] newGossipEmitted:count 7
scalar Network.nodes[887] missingRequested:count 8494
scalar Network.nodes[887] newGossipReceived:count 6074
scalar Network.nodes[887] newGossipEmitted:count 9
scalar Network.nodes[888] missingRequested:count 8074
scalar Network.nodes[888] newGossipReceived:count 6075
scalar Network.nodes[888] newGossipEmitted:count 8
scalar Network.nodes[889] missingRequested:count 7728
scalar Network.nodes[889] newGossipReceived:count 6009
scalar Network.nodes[889] newGossipEmitted:count 9
scalar Network.nodes[890] missingRequested:count 8430
scalar Network.nodes[890] newGossipReceived:count 6077
scalar Network.nodes[890] newGossipEmitted:count 6
scalar Network.nodes[891] missingRequested:count 8403
scalar Network.nodes[891] newGossipReceived:count 6075
scalar Network.nodes[891] newGossipEmitted:count 8
scalar Network.nodes[892] missingRequested:count 8353
scalar Network.nodes[892] newGossipReceived:count 6074
scalar Network.nodes[892] newGossipEmitted:count 9
scalar Network.nodes[893] missingRequested:count 7445
scalar Network.nodes[893] newGossipReceived:count 6076
scalar Network.nodes[893] newGossipEmitted:count 7
scalar Network.nodes[894] missingRequested:count 7659
scalar Network.nodes[894] newGossipReceived:count 6077
scalar Network.nodes[894] newGossipEmitted:count 6
scalar Network.nodes[895] missingRequested:count 7716
scalar Network.nodes[895] newGossipReceived:count 6077
scalar Network.nodes[895] newGossipEmitted:count 6
scalar Network.nodes[896] missingRequested:count 8374
scalar Network.nodes[896] newGossipReceived:count 6079
scalar Network.nodes[896] newGossipEmitted:count 4
scalar Network.nodes[897] missingRequested:count 8325
scalar Network.nodes[897] newGossipReceived:count 6080
scalar Network.nodes[897] newGossipEmitted:count 3
scalar Network.nodes[898] missingRequested:count 8219
scalar Network.nodes[898] newGossipReceived:count 6078
scalar Network.nodes[898] newGossipEmitted:count 5
scalar Network.nodes[899] missingRequested:count 8056
scalar Network.nodes[899] newGossipReceived:count 6080
scalar Network.nodes[899] newGossipEmitted:count 3
scalar Network.nodes[900] missingRequested:count 8067
scalar Network.nodes[900] newGossipReceived:count 6080
scalar Network.nodes[900] newGossipEmitted:count 3
scalar Network.nodes[901] missingRequested:count 8571
scalar Network.nodes[901] newGossipReceived:count 6074
scalar Network.nodes[901] newGossipEmitted:count 9
scalar Network.nodes[902] missingRequested:count 8200
scalar Network.nodes[902] newGossipReceived:count 6077
scalar Network.nodes[902] newGossipEmitted:count 6
scalar Network.nodes[903] missingRequested:count 8028
scalar Network.nodes[903] newGossipReceived:count 6075
scalar Network.nodes[903] newGossipEmitted:count 8
scalar Network.nodes[904] missingRequested:count 7366
scalar Network.nodes[904] newGossipReceived:count 6075
scalar Network.nodes[904] newGossipEmitted:count 8
scalar Network.nodes[905] missingRequested:count 8209
scalar Network.nodes[905] newGossipReceived:count 6072
scalar Network.nodes[905] newGossipEmitted:count 11
scalar Network.nodes[906] missingRequested:count 8438
scalar Network.nodes[906] newGossipReceived:count 6079
scalar Network.nodes[906] newGossipEmitted:count 4
scalar Network.nodes[907] missingRequested:count 8445
scalar Network.nodes[907] newGossipReceived:count 6074
scalar Network.nodes[907] newGossipEmitted:count 9
scalar Network.nodes[908] missingRequested:count 8183
scalar Network.nodes[908] newGossipReceived:count 6080
scalar Network.nodes[908] newGossipEmitted:count 3
scalar Network.nodes[909] missingRequested:count 8419
scalar Network.nodes[909] newGossipReceived:count 6078
scalar Network.nodes[909] newGossipEmitted:count 5
scalar Network.nodes[910] missingRequested:count 8146
scalar Network.nodes[910] newGossipReceived:count 6078
scalar Network.nodes[910] newGossipEmitted:count 5
scalar Network.nodes[911] missingRequested:count 7912
scalar Network.nodes[911] newGossipReceived:count 6075
scalar Network.nodes[911] newGossipEmitted:count 8
scalar Network.nodes[912] missingRequested:count 8484
scalar Network.nodes[912] newGossipReceived:count 6075
scalar Network.nodes[912] newGossipEmitted:count 8
scalar Network.nodes[913] missingRequested:count 7862
scalar Network.nodes[913] newGossipReceived:count 6078
scalar Network.nodes[913] newGossipEmitted:count 5
scalar Network.nodes[914] missingRequested:count 8402
scalar Network.nodes[914] newGossipReceived:count 6075
scalar Network.nodes[914] newGossipEmitted:count 8
scalar Network.nodes[915] missingRequested:count 8080
scalar Network.nodes[915] newGossipReceived:count 6071
scalar Network.nodes[915] newGossipEmitted:count 12
scalar Network.nodes[916] missingRequested:count 7585
scalar Network.nodes[916] newGossipReceived:count 6078
scalar Network.nodes[916] newGossipEmitted:count 5
scalar Network.nodes[917] missingRequested:count 8361
scalar Network.nodes[917] newGossipReceived:count 6077
scalar Network.nodes[917] newGossipEmitted:count 6
scalar Network.nodes[918] missingRequested:count 7824
scalar Network.nodes[918] newGossipReceived:count 6075
scalar Network.nodes[918] newGossipEmitted:count 8
scalar Network.nodes[919] missingRequested:count 8273
scalar Network.nodes[919] newGossipReceived:count 6079
scalar Network.nodes[919] newGossipEmitted:count 4
scalar Network.nodes[920] missingRequested:count 8073
scalar Network.nodes[920] newGossipReceived:count 6076
scalar Network.nodes[920] newGossipEmitted:count 7
scalar Network.nodes[921] missingRequested:count 8089
scalar Network.nodes[921] newGossipReceived:count 6078
scalar Network.nodes[921] newGossipEmitted:count 5
scalar Network.nodes[922] missingRequested:count 7943
scalar Network.nodes[922] newGossipReceived:count 6076
scalar Network.nodes[922] newGossipEmitted:count 7
scalar Network.nodes[923] missingRequested:count 8114
scalar Network.nodes[923] newGossipReceived:count 6075
scalar Network.nodes[923] newGossipEmitted:count 8
scalar Network.nodes[924] missingRequested:count 8286
scalar Network.nodes[924] newGossipReceived:count 6078
scalar Network.nodes[924] newGossipEmitted:count 5
scalar Network.nodes[925] missingRequested:count 7810
scalar Network.nodes[925] newGossipReceived:count 6074
scalar Network.nodes[925] newGossipEmitted:count 9
scalar Network.nodes[926] missingRequested:count 7975
scalar Network.nodes[926] newGossipReceived:count 6075
scalar Network.nodes[926] newGossipEmitted:count 8
scalar Network.nodes[927] missingRequested:count 8399
scalar Network.nodes[927] newGossipReceived:count 6080
scalar Network.nodes[927] newGossipEmitted:count 3
scalar Network.nodes[928] missingRequested:count 8291
scalar Network.nodes[928] newGossipReceived:count 6080
scalar Network.nodes[928] newGossipEmitted:count 3
scalar Network.nodes[929] missingRequested:count 8275
scalar Network.nodes[929] newGossipReceived:count 6081
scalar Network.nodes[929] newGossipEmitted:count 2
scalar Network.nodes[930] missingRequested:count 8163
scalar Network.nodes[930] newGossipReceived:count 6074
scalar Network.nodes[930] newGossipEmitted:count 9
scalar Network.nodes[931] missingRequested:count 8012
scalar Network.nodes[931] newGossipReceived:count 6076
scalar Network.nodes[931] newGossipEmitted:count 7
scalar Network.nodes[932] missingRequested:count 7816
scalar Network.nodes[932] newGossipReceived:count 6078
scalar Network.nodes[932] newGossipEmitted:count 5
scalar Network.nodes[933] missingRequested:count 8568
scalar Network.nodes[933] newGossipReceived:count 6076
scalar Network.nodes[933] newGossipEmitted:count 7
scalar Network.nodes[934] missingRequested:count 8486
scalar Network.nodes[934] newGossipReceived:count 6075
scalar Network.nodes[934] newGossipEmitted:count 8
scalar Network.nodes[935] missingRequested:count 8370
scalar Network.nodes[935] newGossipReceived:count 6077
scalar Network.nodes[935] newGossipEmitted:count 6
scalar Network.nodes[936] missingRequested:count 8314
scalar Network.nodes[936] newGossipReceived:count 6075
scalar Network.nodes[936] newGossipEmitted:count 8
scalar Network.nodes[937] missingRequested:count 0
scalar Network.nodes[937] newGossipReceived:count 0
scalar Network.nodes[937] newGossipEmitted:count 7
scalar Network.nodes[938] missingRequested:count 7946
scalar Network.nodes[938] newGossipReceived:count 6077
scalar Network.nodes[938] newGossipEmitted:count 6
scalar Network.nodes[939] missingRequested:count 7227
scalar Network.nodes[939] newGossipReceived:count 6077
scalar Network.nodes[939] newGossipEmitted:count 6
scalar Network.nodes[940] missingRequested:count 7898
scalar Network.nodes[940] newGossipReceived:count 6078
scalar Network.nodes[940] newGossipEmitted:count 5
scalar Network.nodes[941] missingRequested:count 7969
scalar Network.nodes[941] newGossipReceived:count 6076
scalar Network.nodes[941] newGossipEmitted:count 7
scalar Network.nodes[942] missingRequested:count 8000
scalar Network.nodes[942] newGossipReceived:count 6078
scalar Network.nodes[942] newGossipEmitted:count 5
scalar Network.nodes[943] missingRequested:count 3500
scalar Network.nodes[943] newGossipReceived:count 6080
scalar Network.nodes[943] newGossipEmitted:count 3
scalar Network.nodes[944] missingRequested:count 8174
scalar Network.nodes[944] newGossipReceived:count 6080
scalar Network.nodes[944] newGossipEmitted:count 3
scalar Network.nodes[945] missingRequested:count 7910
scalar Network.nodes[945] newGossipReceived:count 6078
scalar Network.nodes[945] newGossipEmitted:count 5
scalar Network.nodes[946] missingRequested:count 7989
scalar Network.nodes[946] newGossipReceived:count 6077
scalar Network.nodes[946] newGossipEmitted:count 6
scalar Network.nodes[947] missingRequested:count 8541
scalar Network.nodes[947] newGossipReceived:count 6078
scalar Network.nodes[947] newGossipEmitted:count 5
scalar Network.nodes[948] missingRequested:count 8307
scalar Network.nodes[948] newGossipReceived:count 6075
scalar Network.nodes[948] newGossipEmitted:count 8
scalar Network.nodes[949] missingRequested:count 7946
scalar Network.nodes[949] newGossipReceived:count 6076
scalar Network.nodes[949] newGossipEmitted:count 7
scalar Network.nodes[950] missingRequested:count 7964
scalar Network.nodes[950] newGossipReceived:count 6075
scalar Network.nodes[950] newGossipEmitted:count 8
scalar Network.nodes[951] missingRequested:count 8379
scalar Network.nodes[951] newGossipReceived:count 6081
scalar Network.nodes[951] newGossipEmitted:count 2
scalar Network.nodes[952] missingRequested:count 6135
scalar Network.nodes[952] newGossipReceived:count 6072
scalar Network.nodes[952] newGossipEmitted:count 11
scalar Network.nodes[953] missingRequested:count 8412
scalar Network.nodes[953] newGossipReceived:count 6077
scalar Network.nodes[953] newGossipEmitted:count 6
scalar Network.nodes[954] missingRequested:count 8372
scalar Network.nodes[954] newGossipReceived:count 6073
scalar Network.nodes[954] newGossipEmitted:count 10
scalar Network.nodes[955] missingRequested:count 8159
scalar Network.nodes[955] newGossipReceived:count 6073
scalar Network.nodes[955] newGossipEmitted:count 10
scalar Network.nodes[956] missingRequested:count 8270
scalar Network.nodes[956] newGossipReceived:count 6077
scalar Network.nodes[956] newGossipEmitted:count 6
scalar Network.nodes[957] missingRequested:count 8161
scalar Network.nodes[957] newGossipReceived:count 6078
scalar Network.nodes[957] newGossipEmitted:count 5
scalar Network.nodes[958] missingRequested:count 8080
scalar Network.nodes[958] newGossipReceived:count 6072
scalar Network.nodes[958] newGossipEmitted:count 11
scalar Network.nodes[959] missingRequested:count 8155
scalar Network.nodes[959] newGossipReceived:count 6076
scalar Network.nodes[959] newGossipEmitted:count 7
scalar Network.nodes[960] missingRequested:count 8029
scalar Network.nodes[960] newGossipReceived:count 6075
scalar Network.nodes[960] newGossipEmitted:count 8
scalar Network.nodes[961] missingRequested:count 8286
scalar Network.nodes[961] newGossipReceived:count 6077
scalar Network.nodes[961] newGossipEmitted:count 6
scalar Network.nodes[962] missingRequested:count 6388
scalar Network.nodes[962] newGossipReceived:count 6079
scalar Network.nodes[962] newGossipEmitted:count 4
scalar Network.nodes[963] missingRequested:count 8036
scalar Network.nodes[963] newGossipReceived:count 6080
scalar Network.nodes[963] newGossipEmitted:count 3
scalar Network.nodes[964] missingRequested:count 8232
scalar Network.nodes[964] newGossipReceived:count 6078
scalar Network.nodes[964] newGossipEmitted:count 5
scalar Network.nodes[965] missingRequested:count 7902
scalar Network.nodes[965] newGossipReceived:count 6077
scalar Network.nodes[965] newGossipEmitted:count 6
scalar Network.nodes[966] missingRequested:count 8023
scalar Network.nodes[966] newGossipReceived:count 6080
scalar Network.nodes[966] newGossipEmitted:count 3
scalar Network.nodes[967] missingRequested:count 7950
scalar Network.nodes[967] newGossipReceived:count 6075
scalar Network.nodes[967] newGossipEmitted:count 8
scalar Network.nodes[968] missingRequested:count 8085
scalar Network.nodes[968] newGossipReceived:count 6079
scalar Network.nodes[968] newGossipEmitted:count 4
scalar Network.nodes[969] missingRequested:count 8244
scalar Network.nodes[969] newGossipReceived:count 6077
scalar Network.nodes[969] newGossipEmitted:count 6
scalar Network.nodes[970] missingRequested:count 8145
scalar Network.nodes[970] newGossipReceived:count 6080
scalar Network.nodes[970] newGossipEmitted:count 3
scalar Network.nodes[971] missingRequested:count 8192
scalar Network.nodes[971] newGossipReceived:count 6079
scalar Network.nodes[971] newGossipEmitted:count 4
scalar Network.nodes[972] missingRequested:count 8278
scalar Network.nodes[972] newGossipReceived:count 6078
scalar Network.nodes[972] newGossipEmitted:count 5
scalar Network.nodes[973] missingRequested:count 8065
scalar Network.nodes[973] newGossipReceived:count 6079
scalar Network.nodes[973] newGossipEmitted:count 4
scalar Network.nodes[974] missingRequested:count 8081
scalar Network.nodes[974] newGossipReceived:count 6079
scalar Network.nodes[974] newGossipEmitted:count 4
scalar Network.nodes[975] missingRequested:count 8211
scalar Network.nodes[975] newGossipReceived:count 6073
scalar Network.nodes[975] newGossipEmitted:count 10
scalar Network.nodes[976] missingRequested:count 8192
scalar Network.nodes[976] newGossipReceived:count 6078
scalar Network.nodes[976] newGossipEmitted:count 5
scalar Network.nodes[977] missingRequested:count 7904
scalar Network.nodes[977] newGossipReceived:count 6080
scalar Network.nodes[977] newGossipEmitted:count 3
scalar Network.nodes[978] missingRequested:count 8431
scalar Network.nodes[978] newGossipReceived:count 6080
scalar Network.nodes[978] newGossipEmitted:count 3
scalar Network.nodes[979] missingRequested:count 8300
scalar Network.nodes[979] newGossipReceived:count 6073
scalar Network.nodes[979] newGossipEmitted:count 10
scalar Network.nodes[980] missingRequested:count 8461
scalar Network.nodes[980] newGossipReceived:count 6079
scalar Network.nodes[980] newGossipEmitted:count 4
scalar Network.nodes[981] missingRequested:count 7690
scalar Network.nodes[981] newGossipReceived:count 6079
scalar Network.nodes[981] newGossipEmitted:count 4
scalar Network.nodes[982] missingRequested:count 8141
scalar Network.nodes[982] newGossipReceived:count 6078
scalar Network.nodes[982] newGossipEmitted:count 5
scalar Network.nodes[983] missingRequested:count 8342
scalar Network.nodes[983] newGossipReceived:count 6077
scalar Network.nodes[983] newGossipEmitted:count 6
scalar Network.nodes[984] missingRequested:count 7884
scalar Network.nodes[984] newGossipReceived:count 6075
scalar Network.nodes[984] newGossipEmitted:count 8
scalar Network.nodes[985] missingRequested:count 8097
scalar Network.nodes[985] newGossipReceived:count 6081
scalar Network.nodes[985] newGossipEmitted:count 2
scalar Network.nodes[986] missingRequested:count 8220
scalar Network.nodes[986] newGossipReceived:count 6071
scalar Network.nodes[986] newGossipEmitted:count 12
scalar Network.nodes[987] missingRequested:count 8139
scalar Network.nodes[987] newGossipReceived:count 6075
scalar Network.nodes[987] newGossipEmitted:count 8
scalar Network.nodes[988] missingRequested:count 6285
scalar Network.nodes[988] newGossipReceived:count 6077
scalar Network.nodes[988] newGossipEmitted:count 6
scalar Network.nodes[989] missingRequested:count 7943
scalar Network.nodes[989] newGossipReceived:count 6079
scalar Network.nodes[989] newGossipEmitted:count 4
scalar Network.nodes[990] missingRequested:count 8508
scalar Network.nodes[990] newGossipReceived:count 6076
scalar Network.nodes[990] newGossipEmitted:count 7
scalar Network.nodes[991] missingRequested:count 5331
scalar Network.nodes[991] newGossipReceived:count 6074
scalar Network.nodes[991] newGossipEmitted:count 9
scalar Network.nodes[992] missingRequested:count 8238
scalar Network.nodes[992] newGossipReceived:count 6076
scalar Network.nodes[992] newGossipEmitted:count 7
scalar Network.nodes[993] missingRequested:count 0
scalar Network.nodes[993] newGossipReceived:count 0
scalar Network.nodes[993] newGossipEmitted:count 13
scalar Network.nodes[994] missingRequested:count 8153
scalar Network.nodes[994] newGossipReceived:count 6075
scalar Network.nodes[994] newGossipEmitted:count 8
scalar Network.nodes[995] missingRequested:count 8390
scalar Network.nodes[995] newGossipReceived:count 6076
scalar Network.nodes[995] newGossipEmitted:count 7
scalar Network.nodes[996] missingRequested:count 8153
scalar Network.nodes[996] newGossipReceived:count 6079
scalar Network.nodes[996] newGossipEmitted:count 4
scalar Network.nodes[997] missingRequested:count 8069
scalar Network.nodes[997] newGossipReceived:count 6078
scalar Network.nodes[997] newGossipEmitted:count 5
scalar Network.nodes[998] missingRequested:count 7914
scalar Network.nodes[998] newGossipReceived:count 6081
scalar Network.nodes[998] newGossipEmitted:count 2
scalar Network.nodes[999] missingRequested:count 7210
scalar Network.nodes[999] newGossipReceived:count 6080
scalar Network.nodes[999] newGossipEmitted:count 3
scalar Network messageSent:count 151539249
scalar Network newGossipReceived:count 6058603
statistic Network newGossipReceived:histogram
field count 6058603
field mean 6.898027152464
field stddev 7.999828783434
field min 0
field max 55
field sum 41792408
field sqrsum 676019096
bin	-inf	0
bin	0	1174155
bin	1	838824
bin	2	581219
bin	3	425983
bin	4	330874
bin	5	268665
bin	6	226921
bin	7	197458
bin	8	175370
bin	9	159674
bin	10	146328
bin	11	135125
bin	12	124523
bin	13	114411
bin	14	106290
bin	15	99889
bin	16	94216
bin	17	88741
bin	18	83295
bin	19	78019
bin	20	72895
bin	21	67616
bin	22	62546
bin	23	57792
bin	24	53045
bin	25	48199
bin	26	43583
bin	27	38780
bin	28	33662
bin	29	28580
bin	30	23753
bin	31	19476
bin	32	15570
bin	33	12235
bin	34	9257
bin	35	6767
bin	36	4806
bin	37	3355
bin	38	2266
bin	39	1538
bin	40	990
bin	41	665
bin	42	432
bin	43	314
bin	44	197
bin	45	123
bin	46	71
bin	47	41
bin	48	20
bin	49	12
bin	50	11
bin	51	8
bin	52	8
bin	53	4
bin	54	4
bin	55	2
bin	56	0
scalar Network newGossipEmitted:count 6113

