version 2
run EpiSub-12-20180813-23:15:56-28951
attr configname EpiSub
attr datetime 20180813-23:15:56
attr experiment EpiSub
attr inifile omnetpp.ini
attr iterationvars "$nodeCount=10000, $rampUpTime=10000 * 1s, $0=10Hz / 10000, $1=10000 * 1s + 20s"
attr iterationvarsf nodeCount=10000,rampUpTime=10000_#2a_1s,10Hz_#2f_10000,10000_#2a_1s_+_20s-
attr measurement "$nodeCount=10000, $rampUpTime=10000 * 1s, $0=10Hz / 10000, $1=10000 * 1s + 20s"
attr network sharding.Network
attr processid 28951
attr repetition 0
attr replication #0
attr resultdir results
attr runnumber 12
attr seedset 12
itervar nodeCount 10000
itervar rampUpTime "10000 * 1s"
param Network.nodeManager.nodeTypeName "\"sharding.episub.EpiSubNode\""
param Network.nodes[*].gossipHandler.notificationInterval 0.1s
param Network.nodes[*].missingTracker.waitTime 2s
param Network.nodeManager.bootstrapNodeCount 3
param Network.nodeManager.targetNodeCount 10000
param Network.nodeManager.rampUpTime "10000 * 1s"
param Network.nodes[*].source.rate "10Hz / 10000"
param Network.nodes[*].source.active true
param Network.nodes[*].source.warmupTime "10000 * 1s + 20s"
param Network.nodes[*].source.lifeTime 600s
param Network.nodes[*].connectionManager.numRandomNeighbors 2
param Network.nodes[*].connectionManager.numNearNeighbors 2
param Network.nodes[*].connectionManager.passiveListSize 42
param Network.nodes[*].connectionManager.contactNodes "\"0 1 2\""
param Network.nodes[*].connectionManager.activeHeartbeatInterval 2.0
param Network.nodes[*].connectionManager.joinTTL 1
param Network.nodes[*].connectionManager.forwardJoinTTL 1
param Network.nodes[*].connectionManager.shuffleInterval 2.0
param Network.nodes[*].connectionManager.activeShufflingSize 5
param Network.nodes[*].connectionManager.passiveShufflingSize 5
param Network.nodes[*].connectionManager.shuffleTTL 1

scalar Network.nodes[0] missingRequested:count 15093
scalar Network.nodes[0] newGossipReceived:count 11315
scalar Network.nodes[0] newGossipEmitted:count 1
scalar Network.nodes[1] missingRequested:count 16859
scalar Network.nodes[1] newGossipReceived:count 11316
scalar Network.nodes[1] newGossipEmitted:count 1
scalar Network.nodes[2] missingRequested:count 13878
scalar Network.nodes[2] newGossipReceived:count 11316
scalar Network.nodes[2] newGossipEmitted:count 1
scalar Network.nodes[3] missingRequested:count 16089
scalar Network.nodes[3] newGossipReceived:count 11315
scalar Network.nodes[3] newGossipEmitted:count 1
scalar Network.nodes[4] missingRequested:count 16028
scalar Network.nodes[4] newGossipReceived:count 11315
scalar Network.nodes[4] newGossipEmitted:count 1
scalar Network.nodes[5] missingRequested:count 16485
scalar Network.nodes[5] newGossipReceived:count 11316
scalar Network.nodes[5] newGossipEmitted:count 1
scalar Network.nodes[6] missingRequested:count 14712
scalar Network.nodes[6] newGossipReceived:count 11316
scalar Network.nodes[6] newGossipEmitted:count 1
scalar Network.nodes[7] missingRequested:count 15079
scalar Network.nodes[7] newGossipReceived:count 11316
scalar Network.nodes[7] newGossipEmitted:count 1
scalar Network.nodes[8] missingRequested:count 15193
scalar Network.nodes[8] newGossipReceived:count 11315
scalar Network.nodes[8] newGossipEmitted:count 1
scalar Network.nodes[9] missingRequested:count 14623
scalar Network.nodes[9] newGossipReceived:count 11314
scalar Network.nodes[9] newGossipEmitted:count 3
scalar Network.nodes[10] missingRequested:count 15069
scalar Network.nodes[10] newGossipReceived:count 11315
scalar Network.nodes[10] newGossipEmitted:count 1
scalar Network.nodes[11] missingRequested:count 14347
scalar Network.nodes[11] newGossipReceived:count 11315
scalar Network.nodes[11] newGossipEmitted:count 1
scalar Network.nodes[12] missingRequested:count 15944
scalar Network.nodes[12] newGossipReceived:count 11316
scalar Network.nodes[12] newGossipEmitted:count 1
scalar Network.nodes[13] missingRequested:count 14004
scalar Network.nodes[13] newGossipReceived:count 11316
scalar Network.nodes[13] newGossipEmitted:count 1
scalar Network.nodes[14] missingRequested:count 14621
scalar Network.nodes[14] newGossipReceived:count 11316
scalar Network.nodes[14] newGossipEmitted:count 1
scalar Network.nodes[15] missingRequested:count 15644
scalar Network.nodes[15] newGossipReceived:count 11316
scalar Network.nodes[15] newGossipEmitted:count 1
scalar Network.nodes[16] missingRequested:count 15114
scalar Network.nodes[16] newGossipReceived:count 11315
scalar Network.nodes[16] newGossipEmitted:count 1
scalar Network.nodes[17] missingRequested:count 16096
scalar Network.nodes[17] newGossipReceived:count 11316
scalar Network.nodes[17] newGossipEmitted:count 1
scalar Network.nodes[18] missingRequested:count 16041
scalar Network.nodes[18] newGossipReceived:count 11316
scalar Network.nodes[18] newGossipEmitted:count 1
scalar Network.nodes[19] missingRequested:count 15803
scalar Network.nodes[19] newGossipReceived:count 11316
scalar Network.nodes[19] newGossipEmitted:count 1
scalar Network.nodes[20] missingRequested:count 15140
scalar Network.nodes[20] newGossipReceived:count 11316
scalar Network.nodes[20] newGossipEmitted:count 1
scalar Network.nodes[21] missingRequested:count 15636
scalar Network.nodes[21] newGossipReceived:count 11315
scalar Network.nodes[21] newGossipEmitted:count 1
scalar Network.nodes[22] missingRequested:count 15455
scalar Network.nodes[22] newGossipReceived:count 11316
scalar Network.nodes[22] newGossipEmitted:count 1
scalar Network.nodes[23] missingRequested:count 14815
scalar Network.nodes[23] newGossipReceived:count 11316
scalar Network.nodes[23] newGossipEmitted:count 1
scalar Network.nodes[24] missingRequested:count 14531
scalar Network.nodes[24] newGossipReceived:count 11316
scalar Network.nodes[24] newGossipEmitted:count 1
scalar Network.nodes[25] missingRequested:count 15403
scalar Network.nodes[25] newGossipReceived:count 11315
scalar Network.nodes[25] newGossipEmitted:count 1
scalar Network.nodes[26] missingRequested:count 13938
scalar Network.nodes[26] newGossipReceived:count 11316
scalar Network.nodes[26] newGossipEmitted:count 1
scalar Network.nodes[27] missingRequested:count 16211
scalar Network.nodes[27] newGossipReceived:count 11315
scalar Network.nodes[27] newGossipEmitted:count 1
scalar Network.nodes[28] missingRequested:count 15075
scalar Network.nodes[28] newGossipReceived:count 11316
scalar Network.nodes[28] newGossipEmitted:count 1
scalar Network.nodes[29] missingRequested:count 15605
scalar Network.nodes[29] newGossipReceived:count 11315
scalar Network.nodes[29] newGossipEmitted:count 2
scalar Network.nodes[30] missingRequested:count 15226
scalar Network.nodes[30] newGossipReceived:count 11315
scalar Network.nodes[30] newGossipEmitted:count 1
scalar Network.nodes[31] missingRequested:count 15507
scalar Network.nodes[31] newGossipReceived:count 11316
scalar Network.nodes[31] newGossipEmitted:count 1
scalar Network.nodes[32] missingRequested:count 15271
scalar Network.nodes[32] newGossipReceived:count 11315
scalar Network.nodes[32] newGossipEmitted:count 1
scalar Network.nodes[33] missingRequested:count 15551
scalar Network.nodes[33] newGossipReceived:count 11316
scalar Network.nodes[33] newGossipEmitted:count 1
scalar Network.nodes[34] missingRequested:count 15965
scalar Network.nodes[34] newGossipReceived:count 11316
scalar Network.nodes[34] newGossipEmitted:count 1
scalar Network.nodes[35] missingRequested:count 16490
scalar Network.nodes[35] newGossipReceived:count 11316
scalar Network.nodes[35] newGossipEmitted:count 1
scalar Network.nodes[36] missingRequested:count 16332
scalar Network.nodes[36] newGossipReceived:count 11316
scalar Network.nodes[36] newGossipEmitted:count 1
scalar Network.nodes[37] missingRequested:count 14432
scalar Network.nodes[37] newGossipReceived:count 11316
scalar Network.nodes[37] newGossipEmitted:count 1
scalar Network.nodes[38] missingRequested:count 16132
scalar Network.nodes[38] newGossipReceived:count 11315
scalar Network.nodes[38] newGossipEmitted:count 1
scalar Network.nodes[39] missingRequested:count 15373
scalar Network.nodes[39] newGossipReceived:count 11316
scalar Network.nodes[39] newGossipEmitted:count 1
scalar Network.nodes[40] missingRequested:count 14829
scalar Network.nodes[40] newGossipReceived:count 11316
scalar Network.nodes[40] newGossipEmitted:count 1
scalar Network.nodes[41] missingRequested:count 15357
scalar Network.nodes[41] newGossipReceived:count 11316
scalar Network.nodes[41] newGossipEmitted:count 1
scalar Network.nodes[42] missingRequested:count 15673
scalar Network.nodes[42] newGossipReceived:count 11315
scalar Network.nodes[42] newGossipEmitted:count 1
scalar Network.nodes[43] missingRequested:count 14725
scalar Network.nodes[43] newGossipReceived:count 11316
scalar Network.nodes[43] newGossipEmitted:count 1
scalar Network.nodes[44] missingRequested:count 15323
scalar Network.nodes[44] newGossipReceived:count 11315
scalar Network.nodes[44] newGossipEmitted:count 1
scalar Network.nodes[45] missingRequested:count 15035
scalar Network.nodes[45] newGossipReceived:count 11316
scalar Network.nodes[45] newGossipEmitted:count 1
scalar Network.nodes[46] missingRequested:count 16156
scalar Network.nodes[46] newGossipReceived:count 11315
scalar Network.nodes[46] newGossipEmitted:count 1
scalar Network.nodes[47] missingRequested:count 15359
scalar Network.nodes[47] newGossipReceived:count 11316
scalar Network.nodes[47] newGossipEmitted:count 1
scalar Network.nodes[48] missingRequested:count 15890
scalar Network.nodes[48] newGossipReceived:count 11314
scalar Network.nodes[48] newGossipEmitted:count 2
scalar Network.nodes[49] missingRequested:count 16060
scalar Network.nodes[49] newGossipReceived:count 11316
scalar Network.nodes[49] newGossipEmitted:count 1
scalar Network.nodes[50] missingRequested:count 15735
scalar Network.nodes[50] newGossipReceived:count 11316
scalar Network.nodes[50] newGossipEmitted:count 1
scalar Network.nodes[51] missingRequested:count 16324
scalar Network.nodes[51] newGossipReceived:count 11316
scalar Network.nodes[51] newGossipEmitted:count 1
scalar Network.nodes[52] missingRequested:count 16471
scalar Network.nodes[52] newGossipReceived:count 11315
scalar Network.nodes[52] newGossipEmitted:count 1
scalar Network.nodes[53] missingRequested:count 16613
scalar Network.nodes[53] newGossipReceived:count 11316
scalar Network.nodes[53] newGossipEmitted:count 1
scalar Network.nodes[54] missingRequested:count 14901
scalar Network.nodes[54] newGossipReceived:count 11315
scalar Network.nodes[54] newGossipEmitted:count 1
scalar Network.nodes[55] missingRequested:count 14818
scalar Network.nodes[55] newGossipReceived:count 11315
scalar Network.nodes[55] newGossipEmitted:count 1
scalar Network.nodes[56] missingRequested:count 14549
scalar Network.nodes[56] newGossipReceived:count 11315
scalar Network.nodes[56] newGossipEmitted:count 1
scalar Network.nodes[57] missingRequested:count 15507
scalar Network.nodes[57] newGossipReceived:count 11316
scalar Network.nodes[57] newGossipEmitted:count 1
scalar Network.nodes[58] missingRequested:count 14069
scalar Network.nodes[58] newGossipReceived:count 11316
scalar Network.nodes[58] newGossipEmitted:count 1
scalar Network.nodes[59] missingRequested:count 15306
scalar Network.nodes[59] newGossipReceived:count 11316
scalar Network.nodes[59] newGossipEmitted:count 1
scalar Network.nodes[60] missingRequested:count 15771
scalar Network.nodes[60] newGossipReceived:count 11316
scalar Network.nodes[60] newGossipEmitted:count 1
scalar Network.nodes[61] missingRequested:count 16802
scalar Network.nodes[61] newGossipReceived:count 11315
scalar Network.nodes[61] newGossipEmitted:count 1
scalar Network.nodes[62] missingRequested:count 16250
scalar Network.nodes[62] newGossipReceived:count 11316
scalar Network.nodes[62] newGossipEmitted:count 1
scalar Network.nodes[63] missingRequested:count 14110
scalar Network.nodes[63] newGossipReceived:count 11316
scalar Network.nodes[63] newGossipEmitted:count 1
scalar Network.nodes[64] missingRequested:count 13704
scalar Network.nodes[64] newGossipReceived:count 11316
scalar Network.nodes[64] newGossipEmitted:count 1
scalar Network.nodes[65] missingRequested:count 16367
scalar Network.nodes[65] newGossipReceived:count 11316
scalar Network.nodes[65] newGossipEmitted:count 1
scalar Network.nodes[66] missingRequested:count 15573
scalar Network.nodes[66] newGossipReceived:count 11316
scalar Network.nodes[66] newGossipEmitted:count 1
scalar Network.nodes[67] missingRequested:count 12682
scalar Network.nodes[67] newGossipReceived:count 11315
scalar Network.nodes[67] newGossipEmitted:count 1
scalar Network.nodes[68] missingRequested:count 16665
scalar Network.nodes[68] newGossipReceived:count 11316
scalar Network.nodes[68] newGossipEmitted:count 1
scalar Network.nodes[69] missingRequested:count 14333
scalar Network.nodes[69] newGossipReceived:count 11316
scalar Network.nodes[69] newGossipEmitted:count 1
scalar Network.nodes[70] missingRequested:count 16005
scalar Network.nodes[70] newGossipReceived:count 11316
scalar Network.nodes[70] newGossipEmitted:count 1
scalar Network.nodes[71] missingRequested:count 16039
scalar Network.nodes[71] newGossipReceived:count 11315
scalar Network.nodes[71] newGossipEmitted:count 1
scalar Network.nodes[72] missingRequested:count 17109
scalar Network.nodes[72] newGossipReceived:count 11315
scalar Network.nodes[72] newGossipEmitted:count 1
scalar Network.nodes[73] missingRequested:count 15258
scalar Network.nodes[73] newGossipReceived:count 11315
scalar Network.nodes[73] newGossipEmitted:count 2
scalar Network.nodes[74] missingRequested:count 14583
scalar Network.nodes[74] newGossipReceived:count 11316
scalar Network.nodes[74] newGossipEmitted:count 1
scalar Network.nodes[75] missingRequested:count 15397
scalar Network.nodes[75] newGossipReceived:count 11315
scalar Network.nodes[75] newGossipEmitted:count 1
scalar Network.nodes[76] missingRequested:count 16803
scalar Network.nodes[76] newGossipReceived:count 11314
scalar Network.nodes[76] newGossipEmitted:count 3
scalar Network.nodes[77] missingRequested:count 14537
scalar Network.nodes[77] newGossipReceived:count 11315
scalar Network.nodes[77] newGossipEmitted:count 1
scalar Network.nodes[78] missingRequested:count 14895
scalar Network.nodes[78] newGossipReceived:count 11316
scalar Network.nodes[78] newGossipEmitted:count 1
scalar Network.nodes[79] missingRequested:count 14640
scalar Network.nodes[79] newGossipReceived:count 11316
scalar Network.nodes[79] newGossipEmitted:count 1
scalar Network.nodes[80] missingRequested:count 14813
scalar Network.nodes[80] newGossipReceived:count 11316
scalar Network.nodes[80] newGossipEmitted:count 1
scalar Network.nodes[81] missingRequested:count 14283
scalar Network.nodes[81] newGossipReceived:count 11316
scalar Network.nodes[81] newGossipEmitted:count 1
scalar Network.nodes[82] missingRequested:count 14851
scalar Network.nodes[82] newGossipReceived:count 11315
scalar Network.nodes[82] newGossipEmitted:count 1
scalar Network.nodes[83] missingRequested:count 15151
scalar Network.nodes[83] newGossipReceived:count 11315
scalar Network.nodes[83] newGossipEmitted:count 1
scalar Network.nodes[84] missingRequested:count 15266
scalar Network.nodes[84] newGossipReceived:count 11315
scalar Network.nodes[84] newGossipEmitted:count 1
scalar Network.nodes[85] missingRequested:count 15445
scalar Network.nodes[85] newGossipReceived:count 11315
scalar Network.nodes[85] newGossipEmitted:count 2
scalar Network.nodes[86] missingRequested:count 14390
scalar Network.nodes[86] newGossipReceived:count 11316
scalar Network.nodes[86] newGossipEmitted:count 1
scalar Network.nodes[87] missingRequested:count 15596
scalar Network.nodes[87] newGossipReceived:count 11316
scalar Network.nodes[87] newGossipEmitted:count 1
scalar Network.nodes[88] missingRequested:count 15552
scalar Network.nodes[88] newGossipReceived:count 11316
scalar Network.nodes[88] newGossipEmitted:count 1
scalar Network.nodes[89] missingRequested:count 15849
scalar Network.nodes[89] newGossipReceived:count 11315
scalar Network.nodes[89] newGossipEmitted:count 1
scalar Network.nodes[90] missingRequested:count 15820
scalar Network.nodes[90] newGossipReceived:count 11315
scalar Network.nodes[90] newGossipEmitted:count 1
scalar Network.nodes[91] missingRequested:count 13774
scalar Network.nodes[91] newGossipReceived:count 11316
scalar Network.nodes[91] newGossipEmitted:count 1
scalar Network.nodes[92] missingRequested:count 15532
scalar Network.nodes[92] newGossipReceived:count 11316
scalar Network.nodes[92] newGossipEmitted:count 1
scalar Network.nodes[93] missingRequested:count 15238
scalar Network.nodes[93] newGossipReceived:count 11316
scalar Network.nodes[93] newGossipEmitted:count 1
scalar Network.nodes[94] missingRequested:count 15401
scalar Network.nodes[94] newGossipReceived:count 11316
scalar Network.nodes[94] newGossipEmitted:count 1
scalar Network.nodes[95] missingRequested:count 14950
scalar Network.nodes[95] newGossipReceived:count 11316
scalar Network.nodes[95] newGossipEmitted:count 1
scalar Network.nodes[96] missingRequested:count 14583
scalar Network.nodes[96] newGossipReceived:count 11316
scalar Network.nodes[96] newGossipEmitted:count 1
scalar Network.nodes[97] missingRequested:count 15833
scalar Network.nodes[97] newGossipReceived:count 11316
scalar Network.nodes[97] newGossipEmitted:count 1
scalar Network.nodes[98] missingRequested:count 16441
scalar Network.nodes[98] newGossipReceived:count 11315
scalar Network.nodes[98] newGossipEmitted:count 1
scalar Network.nodes[99] missingRequested:count 16674
scalar Network.nodes[99] newGossipReceived:count 11315
scalar Network.nodes[99] newGossipEmitted:count 1
scalar Network.nodes[100] missingRequested:count 15570
scalar Network.nodes[100] newGossipReceived:count 11316
scalar Network.nodes[100] newGossipEmitted:count 1
scalar Network.nodes[101] missingRequested:count 15895
scalar Network.nodes[101] newGossipReceived:count 11316
scalar Network.nodes[101] newGossipEmitted:count 1
scalar Network.nodes[102] missingRequested:count 14914
scalar Network.nodes[102] newGossipReceived:count 11316
scalar Network.nodes[102] newGossipEmitted:count 1
scalar Network.nodes[103] missingRequested:count 15049
scalar Network.nodes[103] newGossipReceived:count 11316
scalar Network.nodes[103] newGossipEmitted:count 1
scalar Network.nodes[104] missingRequested:count 15391
scalar Network.nodes[104] newGossipReceived:count 11315
scalar Network.nodes[104] newGossipEmitted:count 1
scalar Network.nodes[105] missingRequested:count 15747
scalar Network.nodes[105] newGossipReceived:count 11314
scalar Network.nodes[105] newGossipEmitted:count 3
scalar Network.nodes[106] missingRequested:count 14823
scalar Network.nodes[106] newGossipReceived:count 11315
scalar Network.nodes[106] newGossipEmitted:count 2
scalar Network.nodes[107] missingRequested:count 15243
scalar Network.nodes[107] newGossipReceived:count 11316
scalar Network.nodes[107] newGossipEmitted:count 1
scalar Network.nodes[108] missingRequested:count 16579
scalar Network.nodes[108] newGossipReceived:count 11316
scalar Network.nodes[108] newGossipEmitted:count 1
scalar Network.nodes[109] missingRequested:count 15435
scalar Network.nodes[109] newGossipReceived:count 11315
scalar Network.nodes[109] newGossipEmitted:count 1
scalar Network.nodes[110] missingRequested:count 16266
scalar Network.nodes[110] newGossipReceived:count 11316
scalar Network.nodes[110] newGossipEmitted:count 1
scalar Network.nodes[111] missingRequested:count 15690
scalar Network.nodes[111] newGossipReceived:count 11316
scalar Network.nodes[111] newGossipEmitted:count 1
scalar Network.nodes[112] missingRequested:count 15857
scalar Network.nodes[112] newGossipReceived:count 11316
scalar Network.nodes[112] newGossipEmitted:count 1
scalar Network.nodes[113] missingRequested:count 14618
scalar Network.nodes[113] newGossipReceived:count 11316
scalar Network.nodes[113] newGossipEmitted:count 1
scalar Network.nodes[114] missingRequested:count 16262
scalar Network.nodes[114] newGossipReceived:count 11315
scalar Network.nodes[114] newGossipEmitted:count 1
scalar Network.nodes[115] missingRequested:count 15771
scalar Network.nodes[115] newGossipReceived:count 11316
scalar Network.nodes[115] newGossipEmitted:count 1
scalar Network.nodes[116] missingRequested:count 14979
scalar Network.nodes[116] newGossipReceived:count 11316
scalar Network.nodes[116] newGossipEmitted:count 1
scalar Network.nodes[117] missingRequested:count 12691
scalar Network.nodes[117] newGossipReceived:count 11315
scalar Network.nodes[117] newGossipEmitted:count 1
scalar Network.nodes[118] missingRequested:count 14976
scalar Network.nodes[118] newGossipReceived:count 11316
scalar Network.nodes[118] newGossipEmitted:count 1
scalar Network.nodes[119] missingRequested:count 15743
scalar Network.nodes[119] newGossipReceived:count 11316
scalar Network.nodes[119] newGossipEmitted:count 1
scalar Network.nodes[120] missingRequested:count 15666
scalar Network.nodes[120] newGossipReceived:count 11316
scalar Network.nodes[120] newGossipEmitted:count 1
scalar Network.nodes[121] missingRequested:count 15159
scalar Network.nodes[121] newGossipReceived:count 11315
scalar Network.nodes[121] newGossipEmitted:count 2
scalar Network.nodes[122] missingRequested:count 14071
scalar Network.nodes[122] newGossipReceived:count 11316
scalar Network.nodes[122] newGossipEmitted:count 1
scalar Network.nodes[123] missingRequested:count 16278
scalar Network.nodes[123] newGossipReceived:count 11315
scalar Network.nodes[123] newGossipEmitted:count 1
scalar Network.nodes[124] missingRequested:count 15702
scalar Network.nodes[124] newGossipReceived:count 11316
scalar Network.nodes[124] newGossipEmitted:count 1
scalar Network.nodes[125] missingRequested:count 16146
scalar Network.nodes[125] newGossipReceived:count 11316
scalar Network.nodes[125] newGossipEmitted:count 1
scalar Network.nodes[126] missingRequested:count 14887
scalar Network.nodes[126] newGossipReceived:count 11315
scalar Network.nodes[126] newGossipEmitted:count 2
scalar Network.nodes[127] missingRequested:count 15400
scalar Network.nodes[127] newGossipReceived:count 11315
scalar Network.nodes[127] newGossipEmitted:count 1
scalar Network.nodes[128] missingRequested:count 15437
scalar Network.nodes[128] newGossipReceived:count 11315
scalar Network.nodes[128] newGossipEmitted:count 1
scalar Network.nodes[129] missingRequested:count 15357
scalar Network.nodes[129] newGossipReceived:count 11315
scalar Network.nodes[129] newGossipEmitted:count 2
scalar Network.nodes[130] missingRequested:count 15444
scalar Network.nodes[130] newGossipReceived:count 11315
scalar Network.nodes[130] newGossipEmitted:count 1
scalar Network.nodes[131] missingRequested:count 15150
scalar Network.nodes[131] newGossipReceived:count 11315
scalar Network.nodes[131] newGossipEmitted:count 2
scalar Network.nodes[132] missingRequested:count 15934
scalar Network.nodes[132] newGossipReceived:count 11316
scalar Network.nodes[132] newGossipEmitted:count 1
scalar Network.nodes[133] missingRequested:count 15171
scalar Network.nodes[133] newGossipReceived:count 11316
scalar Network.nodes[133] newGossipEmitted:count 1
scalar Network.nodes[134] missingRequested:count 16317
scalar Network.nodes[134] newGossipReceived:count 11316
scalar Network.nodes[134] newGossipEmitted:count 1
scalar Network.nodes[135] missingRequested:count 15513
scalar Network.nodes[135] newGossipReceived:count 11314
scalar Network.nodes[135] newGossipEmitted:count 2
scalar Network.nodes[136] missingRequested:count 15417
scalar Network.nodes[136] newGossipReceived:count 11316
scalar Network.nodes[136] newGossipEmitted:count 1
scalar Network.nodes[137] missingRequested:count 14191
scalar Network.nodes[137] newGossipReceived:count 11314
scalar Network.nodes[137] newGossipEmitted:count 2
scalar Network.nodes[138] missingRequested:count 15272
scalar Network.nodes[138] newGossipReceived:count 11316
scalar Network.nodes[138] newGossipEmitted:count 1
scalar Network.nodes[139] missingRequested:count 15527
scalar Network.nodes[139] newGossipReceived:count 11315
scalar Network.nodes[139] newGossipEmitted:count 1
scalar Network.nodes[140] missingRequested:count 15773
scalar Network.nodes[140] newGossipReceived:count 11315
scalar Network.nodes[140] newGossipEmitted:count 2
scalar Network.nodes[141] missingRequested:count 15508
scalar Network.nodes[141] newGossipReceived:count 11315
scalar Network.nodes[141] newGossipEmitted:count 1
scalar Network.nodes[142] missingRequested:count 15726
scalar Network.nodes[142] newGossipReceived:count 11316
scalar Network.nodes[142] newGossipEmitted:count 1
scalar Network.nodes[143] missingRequested:count 15084
scalar Network.nodes[143] newGossipReceived:count 11316
scalar Network.nodes[143] newGossipEmitted:count 1
scalar Network.nodes[144] missingRequested:count 15015
scalar Network.nodes[144] newGossipReceived:count 11316
scalar Network.nodes[144] newGossipEmitted:count 1
scalar Network.nodes[145] missingRequested:count 14816
scalar Network.nodes[145] newGossipReceived:count 11316
scalar Network.nodes[145] newGossipEmitted:count 1
scalar Network.nodes[146] missingRequested:count 14625
scalar Network.nodes[146] newGossipReceived:count 11316
scalar Network.nodes[146] newGossipEmitted:count 1
scalar Network.nodes[147] missingRequested:count 15019
scalar Network.nodes[147] newGossipReceived:count 11316
scalar Network.nodes[147] newGossipEmitted:count 1
scalar Network.nodes[148] missingRequested:count 15211
scalar Network.nodes[148] newGossipReceived:count 11316
scalar Network.nodes[148] newGossipEmitted:count 1
scalar Network.nodes[149] missingRequested:count 14218
scalar Network.nodes[149] newGossipReceived:count 11316
scalar Network.nodes[149] newGossipEmitted:count 1
scalar Network.nodes[150] missingRequested:count 15066
scalar Network.nodes[150] newGossipReceived:count 11315
scalar Network.nodes[150] newGossipEmitted:count 1
scalar Network.nodes[151] missingRequested:count 14994
scalar Network.nodes[151] newGossipReceived:count 11315
scalar Network.nodes[151] newGossipEmitted:count 1
scalar Network.nodes[152] missingRequested:count 14589
scalar Network.nodes[152] newGossipReceived:count 11315
scalar Network.nodes[152] newGossipEmitted:count 1
scalar Network.nodes[153] missingRequested:count 14783
scalar Network.nodes[153] newGossipReceived:count 11315
scalar Network.nodes[153] newGossipEmitted:count 1
scalar Network.nodes[154] missingRequested:count 16830
scalar Network.nodes[154] newGossipReceived:count 11316
scalar Network.nodes[154] newGossipEmitted:count 1
scalar Network.nodes[155] missingRequested:count 16212
scalar Network.nodes[155] newGossipReceived:count 11316
scalar Network.nodes[155] newGossipEmitted:count 1
scalar Network.nodes[156] missingRequested:count 14934
scalar Network.nodes[156] newGossipReceived:count 11316
scalar Network.nodes[156] newGossipEmitted:count 1
scalar Network.nodes[157] missingRequested:count 14907
scalar Network.nodes[157] newGossipReceived:count 11315
scalar Network.nodes[157] newGossipEmitted:count 1
scalar Network.nodes[158] missingRequested:count 15298
scalar Network.nodes[158] newGossipReceived:count 11315
scalar Network.nodes[158] newGossipEmitted:count 1
scalar Network.nodes[159] missingRequested:count 14619
scalar Network.nodes[159] newGossipReceived:count 11316
scalar Network.nodes[159] newGossipEmitted:count 1
scalar Network.nodes[160] missingRequested:count 16794
scalar Network.nodes[160] newGossipReceived:count 11316
scalar Network.nodes[160] newGossipEmitted:count 1
scalar Network.nodes[161] missingRequested:count 15493
scalar Network.nodes[161] newGossipReceived:count 11314
scalar Network.nodes[161] newGossipEmitted:count 3
scalar Network.nodes[162] missingRequested:count 15024
scalar Network.nodes[162] newGossipReceived:count 11315
scalar Network.nodes[162] newGossipEmitted:count 1
scalar Network.nodes[163] missingRequested:count 15160
scalar Network.nodes[163] newGossipReceived:count 11315
scalar Network.nodes[163] newGossipEmitted:count 1
scalar Network.nodes[164] missingRequested:count 14753
scalar Network.nodes[164] newGossipReceived:count 11316
scalar Network.nodes[164] newGossipEmitted:count 1
scalar Network.nodes[165] missingRequested:count 15007
scalar Network.nodes[165] newGossipReceived:count 11314
scalar Network.nodes[165] newGossipEmitted:count 3
scalar Network.nodes[166] missingRequested:count 15469
scalar Network.nodes[166] newGossipReceived:count 11316
scalar Network.nodes[166] newGossipEmitted:count 1
scalar Network.nodes[167] missingRequested:count 14788
scalar Network.nodes[167] newGossipReceived:count 11315
scalar Network.nodes[167] newGossipEmitted:count 1
scalar Network.nodes[168] missingRequested:count 15983
scalar Network.nodes[168] newGossipReceived:count 11316
scalar Network.nodes[168] newGossipEmitted:count 1
scalar Network.nodes[169] missingRequested:count 16155
scalar Network.nodes[169] newGossipReceived:count 11316
scalar Network.nodes[169] newGossipEmitted:count 1
scalar Network.nodes[170] missingRequested:count 15406
scalar Network.nodes[170] newGossipReceived:count 11316
scalar Network.nodes[170] newGossipEmitted:count 1
scalar Network.nodes[171] missingRequested:count 16070
scalar Network.nodes[171] newGossipReceived:count 11316
scalar Network.nodes[171] newGossipEmitted:count 1
scalar Network.nodes[172] missingRequested:count 16192
scalar Network.nodes[172] newGossipReceived:count 11316
scalar Network.nodes[172] newGossipEmitted:count 1
scalar Network.nodes[173] missingRequested:count 15214
scalar Network.nodes[173] newGossipReceived:count 11315
scalar Network.nodes[173] newGossipEmitted:count 1
scalar Network.nodes[174] missingRequested:count 14907
scalar Network.nodes[174] newGossipReceived:count 11315
scalar Network.nodes[174] newGossipEmitted:count 1
scalar Network.nodes[175] missingRequested:count 15641
scalar Network.nodes[175] newGossipReceived:count 11316
scalar Network.nodes[175] newGossipEmitted:count 1
scalar Network.nodes[176] missingRequested:count 15703
scalar Network.nodes[176] newGossipReceived:count 11315
scalar Network.nodes[176] newGossipEmitted:count 2
scalar Network.nodes[177] missingRequested:count 14481
scalar Network.nodes[177] newGossipReceived:count 11316
scalar Network.nodes[177] newGossipEmitted:count 1
scalar Network.nodes[178] missingRequested:count 15565
scalar Network.nodes[178] newGossipReceived:count 11315
scalar Network.nodes[178] newGossipEmitted:count 1
scalar Network.nodes[179] missingRequested:count 16497
scalar Network.nodes[179] newGossipReceived:count 11316
scalar Network.nodes[179] newGossipEmitted:count 1
scalar Network.nodes[180] missingRequested:count 15098
scalar Network.nodes[180] newGossipReceived:count 11315
scalar Network.nodes[180] newGossipEmitted:count 1
scalar Network.nodes[181] missingRequested:count 14467
scalar Network.nodes[181] newGossipReceived:count 11315
scalar Network.nodes[181] newGossipEmitted:count 1
scalar Network.nodes[182] missingRequested:count 14725
scalar Network.nodes[182] newGossipReceived:count 11316
scalar Network.nodes[182] newGossipEmitted:count 1
scalar Network.nodes[183] missingRequested:count 14537
scalar Network.nodes[183] newGossipReceived:count 11316
scalar Network.nodes[183] newGossipEmitted:count 1
scalar Network.nodes[184] missingRequested:count 15880
scalar Network.nodes[184] newGossipReceived:count 11316
scalar Network.nodes[184] newGossipEmitted:count 1
scalar Network.nodes[185] missingRequested:count 16338
scalar Network.nodes[185] newGossipReceived:count 11315
scalar Network.nodes[185] newGossipEmitted:count 1
scalar Network.nodes[186] missingRequested:count 15932
scalar Network.nodes[186] newGossipReceived:count 11315
scalar Network.nodes[186] newGossipEmitted:count 2
scalar Network.nodes[187] missingRequested:count 14791
scalar Network.nodes[187] newGossipReceived:count 11315
scalar Network.nodes[187] newGossipEmitted:count 1
scalar Network.nodes[188] missingRequested:count 14506
scalar Network.nodes[188] newGossipReceived:count 11316
scalar Network.nodes[188] newGossipEmitted:count 1
scalar Network.nodes[189] missingRequested:count 15119
scalar Network.nodes[189] newGossipReceived:count 11315
scalar Network.nodes[189] newGossipEmitted:count 1
scalar Network.nodes[190] missingRequested:count 14365
scalar Network.nodes[190] newGossipReceived:count 11316
scalar Network.nodes[190] newGossipEmitted:count 1
scalar Network.nodes[191] missingRequested:count 16066
scalar Network.nodes[191] newGossipReceived:count 11315
scalar Network.nodes[191] newGossipEmitted:count 2
scalar Network.nodes[192] missingRequested:count 14467
scalar Network.nodes[192] newGossipReceived:count 11316
scalar Network.nodes[192] newGossipEmitted:count 1
scalar Network.nodes[193] missingRequested:count 14695
scalar Network.nodes[193] newGossipReceived:count 11315
scalar Network.nodes[193] newGossipEmitted:count 1
scalar Network.nodes[194] missingRequested:count 15723
scalar Network.nodes[194] newGossipReceived:count 11316
scalar Network.nodes[194] newGossipEmitted:count 1
scalar Network.nodes[195] missingRequested:count 14971
scalar Network.nodes[195] newGossipReceived:count 11315
scalar Network.nodes[195] newGossipEmitted:count 1
scalar Network.nodes[196] missingRequested:count 15368
scalar Network.nodes[196] newGossipReceived:count 11315
scalar Network.nodes[196] newGossipEmitted:count 1
scalar Network.nodes[197] missingRequested:count 14482
scalar Network.nodes[197] newGossipReceived:count 11315
scalar Network.nodes[197] newGossipEmitted:count 1
scalar Network.nodes[198] missingRequested:count 15553
scalar Network.nodes[198] newGossipReceived:count 11315
scalar Network.nodes[198] newGossipEmitted:count 1
scalar Network.nodes[199] missingRequested:count 14519
scalar Network.nodes[199] newGossipReceived:count 11316
scalar Network.nodes[199] newGossipEmitted:count 1
scalar Network.nodes[200] missingRequested:count 13916
scalar Network.nodes[200] newGossipReceived:count 11316
scalar Network.nodes[200] newGossipEmitted:count 1
scalar Network.nodes[201] missingRequested:count 14984
scalar Network.nodes[201] newGossipReceived:count 11315
scalar Network.nodes[201] newGossipEmitted:count 2
scalar Network.nodes[202] missingRequested:count 15982
scalar Network.nodes[202] newGossipReceived:count 11316
scalar Network.nodes[202] newGossipEmitted:count 1
scalar Network.nodes[203] missingRequested:count 14546
scalar Network.nodes[203] newGossipReceived:count 11314
scalar Network.nodes[203] newGossipEmitted:count 2
scalar Network.nodes[204] missingRequested:count 15035
scalar Network.nodes[204] newGossipReceived:count 11314
scalar Network.nodes[204] newGossipEmitted:count 2
scalar Network.nodes[205] missingRequested:count 13916
scalar Network.nodes[205] newGossipReceived:count 11316
scalar Network.nodes[205] newGossipEmitted:count 1
scalar Network.nodes[206] missingRequested:count 16642
scalar Network.nodes[206] newGossipReceived:count 11315
scalar Network.nodes[206] newGossipEmitted:count 1
scalar Network.nodes[207] missingRequested:count 16532
scalar Network.nodes[207] newGossipReceived:count 11316
scalar Network.nodes[207] newGossipEmitted:count 1
scalar Network.nodes[208] missingRequested:count 16394
scalar Network.nodes[208] newGossipReceived:count 11315
scalar Network.nodes[208] newGossipEmitted:count 1
scalar Network.nodes[209] missingRequested:count 15021
scalar Network.nodes[209] newGossipReceived:count 11315
scalar Network.nodes[209] newGossipEmitted:count 1
scalar Network.nodes[210] missingRequested:count 16288
scalar Network.nodes[210] newGossipReceived:count 11316
scalar Network.nodes[210] newGossipEmitted:count 1
scalar Network.nodes[211] missingRequested:count 15659
scalar Network.nodes[211] newGossipReceived:count 11316
scalar Network.nodes[211] newGossipEmitted:count 1
scalar Network.nodes[212] missingRequested:count 15375
scalar Network.nodes[212] newGossipReceived:count 11316
scalar Network.nodes[212] newGossipEmitted:count 1
scalar Network.nodes[213] missingRequested:count 15194
scalar Network.nodes[213] newGossipReceived:count 11316
scalar Network.nodes[213] newGossipEmitted:count 1
scalar Network.nodes[214] missingRequested:count 14091
scalar Network.nodes[214] newGossipReceived:count 11316
scalar Network.nodes[214] newGossipEmitted:count 1
scalar Network.nodes[215] missingRequested:count 15844
scalar Network.nodes[215] newGossipReceived:count 11315
scalar Network.nodes[215] newGossipEmitted:count 1
scalar Network.nodes[216] missingRequested:count 15505
scalar Network.nodes[216] newGossipReceived:count 11315
scalar Network.nodes[216] newGossipEmitted:count 1
scalar Network.nodes[217] missingRequested:count 15988
scalar Network.nodes[217] newGossipReceived:count 11316
scalar Network.nodes[217] newGossipEmitted:count 1
scalar Network.nodes[218] missingRequested:count 16643
scalar Network.nodes[218] newGossipReceived:count 11316
scalar Network.nodes[218] newGossipEmitted:count 1
scalar Network.nodes[219] missingRequested:count 15619
scalar Network.nodes[219] newGossipReceived:count 11316
scalar Network.nodes[219] newGossipEmitted:count 1
scalar Network.nodes[220] missingRequested:count 13986
scalar Network.nodes[220] newGossipReceived:count 11315
scalar Network.nodes[220] newGossipEmitted:count 1
scalar Network.nodes[221] missingRequested:count 15392
scalar Network.nodes[221] newGossipReceived:count 11316
scalar Network.nodes[221] newGossipEmitted:count 1
scalar Network.nodes[222] missingRequested:count 16004
scalar Network.nodes[222] newGossipReceived:count 11315
scalar Network.nodes[222] newGossipEmitted:count 1
scalar Network.nodes[223] missingRequested:count 15845
scalar Network.nodes[223] newGossipReceived:count 11316
scalar Network.nodes[223] newGossipEmitted:count 1
scalar Network.nodes[224] missingRequested:count 14309
scalar Network.nodes[224] newGossipReceived:count 11316
scalar Network.nodes[224] newGossipEmitted:count 1
scalar Network.nodes[225] missingRequested:count 16832
scalar Network.nodes[225] newGossipReceived:count 11315
scalar Network.nodes[225] newGossipEmitted:count 1
scalar Network.nodes[226] missingRequested:count 14183
scalar Network.nodes[226] newGossipReceived:count 11316
scalar Network.nodes[226] newGossipEmitted:count 1
scalar Network.nodes[227] missingRequested:count 15385
scalar Network.nodes[227] newGossipReceived:count 11316
scalar Network.nodes[227] newGossipEmitted:count 1
scalar Network.nodes[228] missingRequested:count 15871
scalar Network.nodes[228] newGossipReceived:count 11316
scalar Network.nodes[228] newGossipEmitted:count 1
scalar Network.nodes[229] missingRequested:count 15474
scalar Network.nodes[229] newGossipReceived:count 11316
scalar Network.nodes[229] newGossipEmitted:count 1
scalar Network.nodes[230] missingRequested:count 15165
scalar Network.nodes[230] newGossipReceived:count 11316
scalar Network.nodes[230] newGossipEmitted:count 1
scalar Network.nodes[231] missingRequested:count 16708
scalar Network.nodes[231] newGossipReceived:count 11316
scalar Network.nodes[231] newGossipEmitted:count 1
scalar Network.nodes[232] missingRequested:count 14429
scalar Network.nodes[232] newGossipReceived:count 11316
scalar Network.nodes[232] newGossipEmitted:count 1
scalar Network.nodes[233] missingRequested:count 15108
scalar Network.nodes[233] newGossipReceived:count 11315
scalar Network.nodes[233] newGossipEmitted:count 2
scalar Network.nodes[234] missingRequested:count 14545
scalar Network.nodes[234] newGossipReceived:count 11316
scalar Network.nodes[234] newGossipEmitted:count 1
scalar Network.nodes[235] missingRequested:count 15963
scalar Network.nodes[235] newGossipReceived:count 11316
scalar Network.nodes[235] newGossipEmitted:count 1
scalar Network.nodes[236] missingRequested:count 15836
scalar Network.nodes[236] newGossipReceived:count 11315
scalar Network.nodes[236] newGossipEmitted:count 1
scalar Network.nodes[237] missingRequested:count 16548
scalar Network.nodes[237] newGossipReceived:count 11315
scalar Network.nodes[237] newGossipEmitted:count 1
scalar Network.nodes[238] missingRequested:count 16718
scalar Network.nodes[238] newGossipReceived:count 11316
scalar Network.nodes[238] newGossipEmitted:count 1
scalar Network.nodes[239] missingRequested:count 16215
scalar Network.nodes[239] newGossipReceived:count 11314
scalar Network.nodes[239] newGossipEmitted:count 2
scalar Network.nodes[240] missingRequested:count 14663
scalar Network.nodes[240] newGossipReceived:count 11316
scalar Network.nodes[240] newGossipEmitted:count 1
scalar Network.nodes[241] missingRequested:count 15118
scalar Network.nodes[241] newGossipReceived:count 11316
scalar Network.nodes[241] newGossipEmitted:count 1
scalar Network.nodes[242] missingRequested:count 15526
scalar Network.nodes[242] newGossipReceived:count 11316
scalar Network.nodes[242] newGossipEmitted:count 1
scalar Network.nodes[243] missingRequested:count 13246
scalar Network.nodes[243] newGossipReceived:count 11316
scalar Network.nodes[243] newGossipEmitted:count 1
scalar Network.nodes[244] missingRequested:count 16621
scalar Network.nodes[244] newGossipReceived:count 11315
scalar Network.nodes[244] newGossipEmitted:count 1
scalar Network.nodes[245] missingRequested:count 14606
scalar Network.nodes[245] newGossipReceived:count 11315
scalar Network.nodes[245] newGossipEmitted:count 1
scalar Network.nodes[246] missingRequested:count 15623
scalar Network.nodes[246] newGossipReceived:count 11315
scalar Network.nodes[246] newGossipEmitted:count 1
scalar Network.nodes[247] missingRequested:count 16377
scalar Network.nodes[247] newGossipReceived:count 11316
scalar Network.nodes[247] newGossipEmitted:count 1
scalar Network.nodes[248] missingRequested:count 15101
scalar Network.nodes[248] newGossipReceived:count 11315
scalar Network.nodes[248] newGossipEmitted:count 2
scalar Network.nodes[249] missingRequested:count 14437
scalar Network.nodes[249] newGossipReceived:count 11316
scalar Network.nodes[249] newGossipEmitted:count 1
scalar Network.nodes[250] missingRequested:count 14860
scalar Network.nodes[250] newGossipReceived:count 11315
scalar Network.nodes[250] newGossipEmitted:count 1
scalar Network.nodes[251] missingRequested:count 16482
scalar Network.nodes[251] newGossipReceived:count 11316
scalar Network.nodes[251] newGossipEmitted:count 1
scalar Network.nodes[252] missingRequested:count 15912
scalar Network.nodes[252] newGossipReceived:count 11315
scalar Network.nodes[252] newGossipEmitted:count 1
scalar Network.nodes[253] missingRequested:count 15787
scalar Network.nodes[253] newGossipReceived:count 11316
scalar Network.nodes[253] newGossipEmitted:count 1
scalar Network.nodes[254] missingRequested:count 14878
scalar Network.nodes[254] newGossipReceived:count 11316
scalar Network.nodes[254] newGossipEmitted:count 1
scalar Network.nodes[255] missingRequested:count 16532
scalar Network.nodes[255] newGossipReceived:count 11316
scalar Network.nodes[255] newGossipEmitted:count 1
scalar Network.nodes[256] missingRequested:count 15819
scalar Network.nodes[256] newGossipReceived:count 11315
scalar Network.nodes[256] newGossipEmitted:count 1
scalar Network.nodes[257] missingRequested:count 14775
scalar Network.nodes[257] newGossipReceived:count 11315
scalar Network.nodes[257] newGossipEmitted:count 1
scalar Network.nodes[258] missingRequested:count 16280
scalar Network.nodes[258] newGossipReceived:count 11316
scalar Network.nodes[258] newGossipEmitted:count 1
scalar Network.nodes[259] missingRequested:count 14659
scalar Network.nodes[259] newGossipReceived:count 11315
scalar Network.nodes[259] newGossipEmitted:count 1
scalar Network.nodes[260] missingRequested:count 15637
scalar Network.nodes[260] newGossipReceived:count 11316
scalar Network.nodes[260] newGossipEmitted:count 1
scalar Network.nodes[261] missingRequested:count 15000
scalar Network.nodes[261] newGossipReceived:count 11313
scalar Network.nodes[261] newGossipEmitted:count 3
scalar Network.nodes[262] missingRequested:count 14601
scalar Network.nodes[262] newGossipReceived:count 11316
scalar Network.nodes[262] newGossipEmitted:count 1
scalar Network.nodes[263] missingRequested:count 16191
scalar Network.nodes[263] newGossipReceived:count 11315
scalar Network.nodes[263] newGossipEmitted:count 1
scalar Network.nodes[264] missingRequested:count 16180
scalar Network.nodes[264] newGossipReceived:count 11315
scalar Network.nodes[264] newGossipEmitted:count 1
scalar Network.nodes[265] missingRequested:count 15604
scalar Network.nodes[265] newGossipReceived:count 11315
scalar Network.nodes[265] newGossipEmitted:count 2
scalar Network.nodes[266] missingRequested:count 15513
scalar Network.nodes[266] newGossipReceived:count 11316
scalar Network.nodes[266] newGossipEmitted:count 1
scalar Network.nodes[267] missingRequested:count 13989
scalar Network.nodes[267] newGossipReceived:count 11316
scalar Network.nodes[267] newGossipEmitted:count 1
scalar Network.nodes[268] missingRequested:count 14848
scalar Network.nodes[268] newGossipReceived:count 11316
scalar Network.nodes[268] newGossipEmitted:count 1
scalar Network.nodes[269] missingRequested:count 16035
scalar Network.nodes[269] newGossipReceived:count 11316
scalar Network.nodes[269] newGossipEmitted:count 1
scalar Network.nodes[270] missingRequested:count 17028
scalar Network.nodes[270] newGossipReceived:count 11315
scalar Network.nodes[270] newGossipEmitted:count 1
scalar Network.nodes[271] missingRequested:count 15382
scalar Network.nodes[271] newGossipReceived:count 11316
scalar Network.nodes[271] newGossipEmitted:count 1
scalar Network.nodes[272] missingRequested:count 16546
scalar Network.nodes[272] newGossipReceived:count 11316
scalar Network.nodes[272] newGossipEmitted:count 1
scalar Network.nodes[273] missingRequested:count 15009
scalar Network.nodes[273] newGossipReceived:count 11316
scalar Network.nodes[273] newGossipEmitted:count 1
scalar Network.nodes[274] missingRequested:count 15774
scalar Network.nodes[274] newGossipReceived:count 11315
scalar Network.nodes[274] newGossipEmitted:count 1
scalar Network.nodes[275] missingRequested:count 14767
scalar Network.nodes[275] newGossipReceived:count 11315
scalar Network.nodes[275] newGossipEmitted:count 2
scalar Network.nodes[276] missingRequested:count 16128
scalar Network.nodes[276] newGossipReceived:count 11315
scalar Network.nodes[276] newGossipEmitted:count 1
scalar Network.nodes[277] missingRequested:count 16035
scalar Network.nodes[277] newGossipReceived:count 11314
scalar Network.nodes[277] newGossipEmitted:count 3
scalar Network.nodes[278] missingRequested:count 15565
scalar Network.nodes[278] newGossipReceived:count 11315
scalar Network.nodes[278] newGossipEmitted:count 1
scalar Network.nodes[279] missingRequested:count 15812
scalar Network.nodes[279] newGossipReceived:count 11316
scalar Network.nodes[279] newGossipEmitted:count 1
scalar Network.nodes[280] missingRequested:count 15348
scalar Network.nodes[280] newGossipReceived:count 11316
scalar Network.nodes[280] newGossipEmitted:count 1
scalar Network.nodes[281] missingRequested:count 15139
scalar Network.nodes[281] newGossipReceived:count 11316
scalar Network.nodes[281] newGossipEmitted:count 1
scalar Network.nodes[282] missingRequested:count 15594
scalar Network.nodes[282] newGossipReceived:count 11316
scalar Network.nodes[282] newGossipEmitted:count 1
scalar Network.nodes[283] missingRequested:count 14301
scalar Network.nodes[283] newGossipReceived:count 11316
scalar Network.nodes[283] newGossipEmitted:count 1
scalar Network.nodes[284] missingRequested:count 15743
scalar Network.nodes[284] newGossipReceived:count 11315
scalar Network.nodes[284] newGossipEmitted:count 1
scalar Network.nodes[285] missingRequested:count 15591
scalar Network.nodes[285] newGossipReceived:count 11316
scalar Network.nodes[285] newGossipEmitted:count 1
scalar Network.nodes[286] missingRequested:count 14883
scalar Network.nodes[286] newGossipReceived:count 11316
scalar Network.nodes[286] newGossipEmitted:count 1
scalar Network.nodes[287] missingRequested:count 15285
scalar Network.nodes[287] newGossipReceived:count 11315
scalar Network.nodes[287] newGossipEmitted:count 1
scalar Network.nodes[288] missingRequested:count 15689
scalar Network.nodes[288] newGossipReceived:count 11315
scalar Network.nodes[288] newGossipEmitted:count 1
scalar Network.nodes[289] missingRequested:count 16155
scalar Network.nodes[289] newGossipReceived:count 11316
scalar Network.nodes[289] newGossipEmitted:count 1
scalar Network.nodes[290] missingRequested:count 13848
scalar Network.nodes[290] newGossipReceived:count 11316
scalar Network.nodes[290] newGossipEmitted:count 1
scalar Network.nodes[291] missingRequested:count 15196
scalar Network.nodes[291] newGossipReceived:count 11316
scalar Network.nodes[291] newGossipEmitted:count 1
scalar Network.nodes[292] missingRequested:count 16616
scalar Network.nodes[292] newGossipReceived:count 11316
scalar Network.nodes[292] newGossipEmitted:count 1
scalar Network.nodes[293] missingRequested:count 16036
scalar Network.nodes[293] newGossipReceived:count 11316
scalar Network.nodes[293] newGossipEmitted:count 1
scalar Network.nodes[294] missingRequested:count 15862
scalar Network.nodes[294] newGossipReceived:count 11315
scalar Network.nodes[294] newGossipEmitted:count 1
scalar Network.nodes[295] missingRequested:count 14102
scalar Network.nodes[295] newGossipReceived:count 11316
scalar Network.nodes[295] newGossipEmitted:count 1
scalar Network.nodes[296] missingRequested:count 16044
scalar Network.nodes[296] newGossipReceived:count 11316
scalar Network.nodes[296] newGossipEmitted:count 1
scalar Network.nodes[297] missingRequested:count 14257
scalar Network.nodes[297] newGossipReceived:count 11316
scalar Network.nodes[297] newGossipEmitted:count 1
scalar Network.nodes[298] missingRequested:count 16869
scalar Network.nodes[298] newGossipReceived:count 11316
scalar Network.nodes[298] newGossipEmitted:count 1
scalar Network.nodes[299] missingRequested:count 13134
scalar Network.nodes[299] newGossipReceived:count 11316
scalar Network.nodes[299] newGossipEmitted:count 1
scalar Network.nodes[300] missingRequested:count 14970
scalar Network.nodes[300] newGossipReceived:count 11316
scalar Network.nodes[300] newGossipEmitted:count 1
scalar Network.nodes[301] missingRequested:count 16085
scalar Network.nodes[301] newGossipReceived:count 11315
scalar Network.nodes[301] newGossipEmitted:count 2
scalar Network.nodes[302] missingRequested:count 14812
scalar Network.nodes[302] newGossipReceived:count 11316
scalar Network.nodes[302] newGossipEmitted:count 1
scalar Network.nodes[303] missingRequested:count 16380
scalar Network.nodes[303] newGossipReceived:count 11316
scalar Network.nodes[303] newGossipEmitted:count 1
scalar Network.nodes[304] missingRequested:count 15896
scalar Network.nodes[304] newGossipReceived:count 11314
scalar Network.nodes[304] newGossipEmitted:count 3
scalar Network.nodes[305] missingRequested:count 14608
scalar Network.nodes[305] newGossipReceived:count 11316
scalar Network.nodes[305] newGossipEmitted:count 1
scalar Network.nodes[306] missingRequested:count 14700
scalar Network.nodes[306] newGossipReceived:count 11316
scalar Network.nodes[306] newGossipEmitted:count 1
scalar Network.nodes[307] missingRequested:count 16040
scalar Network.nodes[307] newGossipReceived:count 11316
scalar Network.nodes[307] newGossipEmitted:count 1
scalar Network.nodes[308] missingRequested:count 15399
scalar Network.nodes[308] newGossipReceived:count 11315
scalar Network.nodes[308] newGossipEmitted:count 1
scalar Network.nodes[309] missingRequested:count 16099
scalar Network.nodes[309] newGossipReceived:count 11316
scalar Network.nodes[309] newGossipEmitted:count 1
scalar Network.nodes[310] missingRequested:count 15861
scalar Network.nodes[310] newGossipReceived:count 11313
scalar Network.nodes[310] newGossipEmitted:count 3
scalar Network.nodes[311] missingRequested:count 15275
scalar Network.nodes[311] newGossipReceived:count 11316
scalar Network.nodes[311] newGossipEmitted:count 1
scalar Network.nodes[312] missingRequested:count 12915
scalar Network.nodes[312] newGossipReceived:count 11316
scalar Network.nodes[312] newGossipEmitted:count 1
scalar Network.nodes[313] missingRequested:count 15336
scalar Network.nodes[313] newGossipReceived:count 11316
scalar Network.nodes[313] newGossipEmitted:count 1
scalar Network.nodes[314] missingRequested:count 15805
scalar Network.nodes[314] newGossipReceived:count 11316
scalar Network.nodes[314] newGossipEmitted:count 1
scalar Network.nodes[315] missingRequested:count 14998
scalar Network.nodes[315] newGossipReceived:count 11314
scalar Network.nodes[315] newGossipEmitted:count 3
scalar Network.nodes[316] missingRequested:count 14180
scalar Network.nodes[316] newGossipReceived:count 11316
scalar Network.nodes[316] newGossipEmitted:count 1
scalar Network.nodes[317] missingRequested:count 14711
scalar Network.nodes[317] newGossipReceived:count 11315
scalar Network.nodes[317] newGossipEmitted:count 1
scalar Network.nodes[318] missingRequested:count 16022
scalar Network.nodes[318] newGossipReceived:count 11315
scalar Network.nodes[318] newGossipEmitted:count 1
scalar Network.nodes[319] missingRequested:count 15835
scalar Network.nodes[319] newGossipReceived:count 11316
scalar Network.nodes[319] newGossipEmitted:count 1
scalar Network.nodes[320] missingRequested:count 15457
scalar Network.nodes[320] newGossipReceived:count 11316
scalar Network.nodes[320] newGossipEmitted:count 1
scalar Network.nodes[321] missingRequested:count 15859
scalar Network.nodes[321] newGossipReceived:count 11315
scalar Network.nodes[321] newGossipEmitted:count 1
scalar Network.nodes[322] missingRequested:count 16098
scalar Network.nodes[322] newGossipReceived:count 11315
scalar Network.nodes[322] newGossipEmitted:count 1
scalar Network.nodes[323] missingRequested:count 15693
scalar Network.nodes[323] newGossipReceived:count 11316
scalar Network.nodes[323] newGossipEmitted:count 1
scalar Network.nodes[324] missingRequested:count 14172
scalar Network.nodes[324] newGossipReceived:count 11316
scalar Network.nodes[324] newGossipEmitted:count 1
scalar Network.nodes[325] missingRequested:count 16202
scalar Network.nodes[325] newGossipReceived:count 11315
scalar Network.nodes[325] newGossipEmitted:count 1
scalar Network.nodes[326] missingRequested:count 14496
scalar Network.nodes[326] newGossipReceived:count 11316
scalar Network.nodes[326] newGossipEmitted:count 1
scalar Network.nodes[327] missingRequested:count 15761
scalar Network.nodes[327] newGossipReceived:count 11315
scalar Network.nodes[327] newGossipEmitted:count 1
scalar Network.nodes[328] missingRequested:count 14724
scalar Network.nodes[328] newGossipReceived:count 11315
scalar Network.nodes[328] newGossipEmitted:count 1
scalar Network.nodes[329] missingRequested:count 14780
scalar Network.nodes[329] newGossipReceived:count 11316
scalar Network.nodes[329] newGossipEmitted:count 1
scalar Network.nodes[330] missingRequested:count 16131
scalar Network.nodes[330] newGossipReceived:count 11316
scalar Network.nodes[330] newGossipEmitted:count 1
scalar Network.nodes[331] missingRequested:count 15697
scalar Network.nodes[331] newGossipReceived:count 11315
scalar Network.nodes[331] newGossipEmitted:count 1
scalar Network.nodes[332] missingRequested:count 14962
scalar Network.nodes[332] newGossipReceived:count 11316
scalar Network.nodes[332] newGossipEmitted:count 1
scalar Network.nodes[333] missingRequested:count 15585
scalar Network.nodes[333] newGossipReceived:count 11316
scalar Network.nodes[333] newGossipEmitted:count 1
scalar Network.nodes[334] missingRequested:count 16095
scalar Network.nodes[334] newGossipReceived:count 11316
scalar Network.nodes[334] newGossipEmitted:count 1
scalar Network.nodes[335] missingRequested:count 14146
scalar Network.nodes[335] newGossipReceived:count 11315
scalar Network.nodes[335] newGossipEmitted:count 1
scalar Network.nodes[336] missingRequested:count 13414
scalar Network.nodes[336] newGossipReceived:count 11316
scalar Network.nodes[336] newGossipEmitted:count 1
scalar Network.nodes[337] missingRequested:count 15730
scalar Network.nodes[337] newGossipReceived:count 11316
scalar Network.nodes[337] newGossipEmitted:count 1
scalar Network.nodes[338] missingRequested:count 14648
scalar Network.nodes[338] newGossipReceived:count 11315
scalar Network.nodes[338] newGossipEmitted:count 1
scalar Network.nodes[339] missingRequested:count 15324
scalar Network.nodes[339] newGossipReceived:count 11315
scalar Network.nodes[339] newGossipEmitted:count 1
scalar Network.nodes[340] missingRequested:count 13684
scalar Network.nodes[340] newGossipReceived:count 11316
scalar Network.nodes[340] newGossipEmitted:count 1
scalar Network.nodes[341] missingRequested:count 14464
scalar Network.nodes[341] newGossipReceived:count 11315
scalar Network.nodes[341] newGossipEmitted:count 1
scalar Network.nodes[342] missingRequested:count 16276
scalar Network.nodes[342] newGossipReceived:count 11316
scalar Network.nodes[342] newGossipEmitted:count 1
scalar Network.nodes[343] missingRequested:count 16145
scalar Network.nodes[343] newGossipReceived:count 11316
scalar Network.nodes[343] newGossipEmitted:count 1
scalar Network.nodes[344] missingRequested:count 14762
scalar Network.nodes[344] newGossipReceived:count 11316
scalar Network.nodes[344] newGossipEmitted:count 1
scalar Network.nodes[345] missingRequested:count 15702
scalar Network.nodes[345] newGossipReceived:count 11316
scalar Network.nodes[345] newGossipEmitted:count 1
scalar Network.nodes[346] missingRequested:count 14743
scalar Network.nodes[346] newGossipReceived:count 11316
scalar Network.nodes[346] newGossipEmitted:count 1
scalar Network.nodes[347] missingRequested:count 15805
scalar Network.nodes[347] newGossipReceived:count 11315
scalar Network.nodes[347] newGossipEmitted:count 2
scalar Network.nodes[348] missingRequested:count 15256
scalar Network.nodes[348] newGossipReceived:count 11316
scalar Network.nodes[348] newGossipEmitted:count 1
scalar Network.nodes[349] missingRequested:count 14661
scalar Network.nodes[349] newGossipReceived:count 11316
scalar Network.nodes[349] newGossipEmitted:count 1
scalar Network.nodes[350] missingRequested:count 15850
scalar Network.nodes[350] newGossipReceived:count 11315
scalar Network.nodes[350] newGossipEmitted:count 1
scalar Network.nodes[351] missingRequested:count 16151
scalar Network.nodes[351] newGossipReceived:count 11316
scalar Network.nodes[351] newGossipEmitted:count 1
scalar Network.nodes[352] missingRequested:count 16360
scalar Network.nodes[352] newGossipReceived:count 11314
scalar Network.nodes[352] newGossipEmitted:count 2
scalar Network.nodes[353] missingRequested:count 15796
scalar Network.nodes[353] newGossipReceived:count 11316
scalar Network.nodes[353] newGossipEmitted:count 1
scalar Network.nodes[354] missingRequested:count 13515
scalar Network.nodes[354] newGossipReceived:count 11314
scalar Network.nodes[354] newGossipEmitted:count 2
scalar Network.nodes[355] missingRequested:count 12801
scalar Network.nodes[355] newGossipReceived:count 11315
scalar Network.nodes[355] newGossipEmitted:count 1
scalar Network.nodes[356] missingRequested:count 15306
scalar Network.nodes[356] newGossipReceived:count 11316
scalar Network.nodes[356] newGossipEmitted:count 1
scalar Network.nodes[357] missingRequested:count 16392
scalar Network.nodes[357] newGossipReceived:count 11316
scalar Network.nodes[357] newGossipEmitted:count 1
scalar Network.nodes[358] missingRequested:count 15648
scalar Network.nodes[358] newGossipReceived:count 11316
scalar Network.nodes[358] newGossipEmitted:count 1
scalar Network.nodes[359] missingRequested:count 16314
scalar Network.nodes[359] newGossipReceived:count 11315
scalar Network.nodes[359] newGossipEmitted:count 1
scalar Network.nodes[360] missingRequested:count 14988
scalar Network.nodes[360] newGossipReceived:count 11315
scalar Network.nodes[360] newGossipEmitted:count 1
scalar Network.nodes[361] missingRequested:count 14486
scalar Network.nodes[361] newGossipReceived:count 11315
scalar Network.nodes[361] newGossipEmitted:count 2
scalar Network.nodes[362] missingRequested:count 14714
scalar Network.nodes[362] newGossipReceived:count 11316
scalar Network.nodes[362] newGossipEmitted:count 1
scalar Network.nodes[363] missingRequested:count 15608
scalar Network.nodes[363] newGossipReceived:count 11315
scalar Network.nodes[363] newGossipEmitted:count 1
scalar Network.nodes[364] missingRequested:count 15881
scalar Network.nodes[364] newGossipReceived:count 11316
scalar Network.nodes[364] newGossipEmitted:count 1
scalar Network.nodes[365] missingRequested:count 16182
scalar Network.nodes[365] newGossipReceived:count 11316
scalar Network.nodes[365] newGossipEmitted:count 1
scalar Network.nodes[366] missingRequested:count 15919
scalar Network.nodes[366] newGossipReceived:count 11315
scalar Network.nodes[366] newGossipEmitted:count 1
scalar Network.nodes[367] missingRequested:count 15779
scalar Network.nodes[367] newGossipReceived:count 11316
scalar Network.nodes[367] newGossipEmitted:count 1
scalar Network.nodes[368] missingRequested:count 14901
scalar Network.nodes[368] newGossipReceived:count 11316
scalar Network.nodes[368] newGossipEmitted:count 1
scalar Network.nodes[369] missingRequested:count 15948
scalar Network.nodes[369] newGossipReceived:count 11316
scalar Network.nodes[369] newGossipEmitted:count 1
scalar Network.nodes[370] missingRequested:count 14020
scalar Network.nodes[370] newGossipReceived:count 11315
scalar Network.nodes[370] newGossipEmitted:count 2
scalar Network.nodes[371] missingRequested:count 15975
scalar Network.nodes[371] newGossipReceived:count 11315
scalar Network.nodes[371] newGossipEmitted:count 2
scalar Network.nodes[372] missingRequested:count 16296
scalar Network.nodes[372] newGossipReceived:count 11315
scalar Network.nodes[372] newGossipEmitted:count 2
scalar Network.nodes[373] missingRequested:count 15161
scalar Network.nodes[373] newGossipReceived:count 11316
scalar Network.nodes[373] newGossipEmitted:count 1
scalar Network.nodes[374] missingRequested:count 13255
scalar Network.nodes[374] newGossipReceived:count 11316
scalar Network.nodes[374] newGossipEmitted:count 1
scalar Network.nodes[375] missingRequested:count 16125
scalar Network.nodes[375] newGossipReceived:count 11315
scalar Network.nodes[375] newGossipEmitted:count 2
scalar Network.nodes[376] missingRequested:count 15686
scalar Network.nodes[376] newGossipReceived:count 11316
scalar Network.nodes[376] newGossipEmitted:count 1
scalar Network.nodes[377] missingRequested:count 15215
scalar Network.nodes[377] newGossipReceived:count 11316
scalar Network.nodes[377] newGossipEmitted:count 1
scalar Network.nodes[378] missingRequested:count 14434
scalar Network.nodes[378] newGossipReceived:count 11316
scalar Network.nodes[378] newGossipEmitted:count 1
scalar Network.nodes[379] missingRequested:count 13533
scalar Network.nodes[379] newGossipReceived:count 11316
scalar Network.nodes[379] newGossipEmitted:count 1
scalar Network.nodes[380] missingRequested:count 15140
scalar Network.nodes[380] newGossipReceived:count 11316
scalar Network.nodes[380] newGossipEmitted:count 1
scalar Network.nodes[381] missingRequested:count 14913
scalar Network.nodes[381] newGossipReceived:count 11316
scalar Network.nodes[381] newGossipEmitted:count 1
scalar Network.nodes[382] missingRequested:count 15627
scalar Network.nodes[382] newGossipReceived:count 11316
scalar Network.nodes[382] newGossipEmitted:count 1
scalar Network.nodes[383] missingRequested:count 15881
scalar Network.nodes[383] newGossipReceived:count 11316
scalar Network.nodes[383] newGossipEmitted:count 1
scalar Network.nodes[384] missingRequested:count 15534
scalar Network.nodes[384] newGossipReceived:count 11316
scalar Network.nodes[384] newGossipEmitted:count 1
scalar Network.nodes[385] missingRequested:count 16119
scalar Network.nodes[385] newGossipReceived:count 11316
scalar Network.nodes[385] newGossipEmitted:count 1
scalar Network.nodes[386] missingRequested:count 15164
scalar Network.nodes[386] newGossipReceived:count 11316
scalar Network.nodes[386] newGossipEmitted:count 1
scalar Network.nodes[387] missingRequested:count 15131
scalar Network.nodes[387] newGossipReceived:count 11316
scalar Network.nodes[387] newGossipEmitted:count 1
scalar Network.nodes[388] missingRequested:count 15961
scalar Network.nodes[388] newGossipReceived:count 11316
scalar Network.nodes[388] newGossipEmitted:count 1
scalar Network.nodes[389] missingRequested:count 16126
scalar Network.nodes[389] newGossipReceived:count 11316
scalar Network.nodes[389] newGossipEmitted:count 1
scalar Network.nodes[390] missingRequested:count 13381
scalar Network.nodes[390] newGossipReceived:count 11315
scalar Network.nodes[390] newGossipEmitted:count 1
scalar Network.nodes[391] missingRequested:count 15987
scalar Network.nodes[391] newGossipReceived:count 11315
scalar Network.nodes[391] newGossipEmitted:count 2
scalar Network.nodes[392] missingRequested:count 15563
scalar Network.nodes[392] newGossipReceived:count 11316
scalar Network.nodes[392] newGossipEmitted:count 1
scalar Network.nodes[393] missingRequested:count 15522
scalar Network.nodes[393] newGossipReceived:count 11316
scalar Network.nodes[393] newGossipEmitted:count 1
scalar Network.nodes[394] missingRequested:count 15613
scalar Network.nodes[394] newGossipReceived:count 11315
scalar Network.nodes[394] newGossipEmitted:count 1
scalar Network.nodes[395] missingRequested:count 14492
scalar Network.nodes[395] newGossipReceived:count 11316
scalar Network.nodes[395] newGossipEmitted:count 1
scalar Network.nodes[396] missingRequested:count 15294
scalar Network.nodes[396] newGossipReceived:count 11316
scalar Network.nodes[396] newGossipEmitted:count 1
scalar Network.nodes[397] missingRequested:count 15946
scalar Network.nodes[397] newGossipReceived:count 11316
scalar Network.nodes[397] newGossipEmitted:count 1
scalar Network.nodes[398] missingRequested:count 14143
scalar Network.nodes[398] newGossipReceived:count 11316
scalar Network.nodes[398] newGossipEmitted:count 1
scalar Network.nodes[399] missingRequested:count 15150
scalar Network.nodes[399] newGossipReceived:count 11316
scalar Network.nodes[399] newGossipEmitted:count 1
scalar Network.nodes[400] missingRequested:count 15991
scalar Network.nodes[400] newGossipReceived:count 11314
scalar Network.nodes[400] newGossipEmitted:count 3
scalar Network.nodes[401] missingRequested:count 13719
scalar Network.nodes[401] newGossipReceived:count 11316
scalar Network.nodes[401] newGossipEmitted:count 1
scalar Network.nodes[402] missingRequested:count 13234
scalar Network.nodes[402] newGossipReceived:count 11316
scalar Network.nodes[402] newGossipEmitted:count 1
scalar Network.nodes[403] missingRequested:count 14928
scalar Network.nodes[403] newGossipReceived:count 11315
scalar Network.nodes[403] newGossipEmitted:count 2
scalar Network.nodes[404] missingRequested:count 15866
scalar Network.nodes[404] newGossipReceived:count 11316
scalar Network.nodes[404] newGossipEmitted:count 1
scalar Network.nodes[405] missingRequested:count 15020
scalar Network.nodes[405] newGossipReceived:count 11316
scalar Network.nodes[405] newGossipEmitted:count 1
scalar Network.nodes[406] missingRequested:count 15444
scalar Network.nodes[406] newGossipReceived:count 11316
scalar Network.nodes[406] newGossipEmitted:count 1
scalar Network.nodes[407] missingRequested:count 15192
scalar Network.nodes[407] newGossipReceived:count 11315
scalar Network.nodes[407] newGossipEmitted:count 1
scalar Network.nodes[408] missingRequested:count 16133
scalar Network.nodes[408] newGossipReceived:count 11316
scalar Network.nodes[408] newGossipEmitted:count 1
scalar Network.nodes[409] missingRequested:count 13262
scalar Network.nodes[409] newGossipReceived:count 11316
scalar Network.nodes[409] newGossipEmitted:count 1
scalar Network.nodes[410] missingRequested:count 14808
scalar Network.nodes[410] newGossipReceived:count 11315
scalar Network.nodes[410] newGossipEmitted:count 1
scalar Network.nodes[411] missingRequested:count 15734
scalar Network.nodes[411] newGossipReceived:count 11316
scalar Network.nodes[411] newGossipEmitted:count 1
scalar Network.nodes[412] missingRequested:count 16671
scalar Network.nodes[412] newGossipReceived:count 11316
scalar Network.nodes[412] newGossipEmitted:count 1
scalar Network.nodes[413] missingRequested:count 15475
scalar Network.nodes[413] newGossipReceived:count 11316
scalar Network.nodes[413] newGossipEmitted:count 1
scalar Network.nodes[414] missingRequested:count 15072
scalar Network.nodes[414] newGossipReceived:count 11315
scalar Network.nodes[414] newGossipEmitted:count 1
scalar Network.nodes[415] missingRequested:count 15083
scalar Network.nodes[415] newGossipReceived:count 11316
scalar Network.nodes[415] newGossipEmitted:count 1
scalar Network.nodes[416] missingRequested:count 13516
scalar Network.nodes[416] newGossipReceived:count 11315
scalar Network.nodes[416] newGossipEmitted:count 1
scalar Network.nodes[417] missingRequested:count 15546
scalar Network.nodes[417] newGossipReceived:count 11315
scalar Network.nodes[417] newGossipEmitted:count 1
scalar Network.nodes[418] missingRequested:count 16456
scalar Network.nodes[418] newGossipReceived:count 11316
scalar Network.nodes[418] newGossipEmitted:count 1
scalar Network.nodes[419] missingRequested:count 14692
scalar Network.nodes[419] newGossipReceived:count 11316
scalar Network.nodes[419] newGossipEmitted:count 1
scalar Network.nodes[420] missingRequested:count 14514
scalar Network.nodes[420] newGossipReceived:count 11316
scalar Network.nodes[420] newGossipEmitted:count 1
scalar Network.nodes[421] missingRequested:count 16108
scalar Network.nodes[421] newGossipReceived:count 11315
scalar Network.nodes[421] newGossipEmitted:count 1
scalar Network.nodes[422] missingRequested:count 15832
scalar Network.nodes[422] newGossipReceived:count 11316
scalar Network.nodes[422] newGossipEmitted:count 1
scalar Network.nodes[423] missingRequested:count 15845
scalar Network.nodes[423] newGossipReceived:count 11315
scalar Network.nodes[423] newGossipEmitted:count 1
scalar Network.nodes[424] missingRequested:count 15585
scalar Network.nodes[424] newGossipReceived:count 11316
scalar Network.nodes[424] newGossipEmitted:count 1
scalar Network.nodes[425] missingRequested:count 15590
scalar Network.nodes[425] newGossipReceived:count 11315
scalar Network.nodes[425] newGossipEmitted:count 1
scalar Network.nodes[426] missingRequested:count 15608
scalar Network.nodes[426] newGossipReceived:count 11316
scalar Network.nodes[426] newGossipEmitted:count 1
scalar Network.nodes[427] missingRequested:count 15729
scalar Network.nodes[427] newGossipReceived:count 11316
scalar Network.nodes[427] newGossipEmitted:count 1
scalar Network.nodes[428] missingRequested:count 16363
scalar Network.nodes[428] newGossipReceived:count 11316
scalar Network.nodes[428] newGossipEmitted:count 1
scalar Network.nodes[429] missingRequested:count 16683
scalar Network.nodes[429] newGossipReceived:count 11316
scalar Network.nodes[429] newGossipEmitted:count 1
scalar Network.nodes[430] missingRequested:count 15899
scalar Network.nodes[430] newGossipReceived:count 11316
scalar Network.nodes[430] newGossipEmitted:count 1
scalar Network.nodes[431] missingRequested:count 14174
scalar Network.nodes[431] newGossipReceived:count 11316
scalar Network.nodes[431] newGossipEmitted:count 1
scalar Network.nodes[432] missingRequested:count 15312
scalar Network.nodes[432] newGossipReceived:count 11316
scalar Network.nodes[432] newGossipEmitted:count 1
scalar Network.nodes[433] missingRequested:count 15945
scalar Network.nodes[433] newGossipReceived:count 11316
scalar Network.nodes[433] newGossipEmitted:count 1
scalar Network.nodes[434] missingRequested:count 15191
scalar Network.nodes[434] newGossipReceived:count 11315
scalar Network.nodes[434] newGossipEmitted:count 1
scalar Network.nodes[435] missingRequested:count 15286
scalar Network.nodes[435] newGossipReceived:count 11315
scalar Network.nodes[435] newGossipEmitted:count 1
scalar Network.nodes[436] missingRequested:count 15008
scalar Network.nodes[436] newGossipReceived:count 11315
scalar Network.nodes[436] newGossipEmitted:count 2
scalar Network.nodes[437] missingRequested:count 16876
scalar Network.nodes[437] newGossipReceived:count 11316
scalar Network.nodes[437] newGossipEmitted:count 1
scalar Network.nodes[438] missingRequested:count 14740
scalar Network.nodes[438] newGossipReceived:count 11314
scalar Network.nodes[438] newGossipEmitted:count 3
scalar Network.nodes[439] missingRequested:count 15691
scalar Network.nodes[439] newGossipReceived:count 11315
scalar Network.nodes[439] newGossipEmitted:count 2
scalar Network.nodes[440] missingRequested:count 16286
scalar Network.nodes[440] newGossipReceived:count 11315
scalar Network.nodes[440] newGossipEmitted:count 1
scalar Network.nodes[441] missingRequested:count 15914
scalar Network.nodes[441] newGossipReceived:count 11315
scalar Network.nodes[441] newGossipEmitted:count 1
scalar Network.nodes[442] missingRequested:count 15354
scalar Network.nodes[442] newGossipReceived:count 11315
scalar Network.nodes[442] newGossipEmitted:count 1
scalar Network.nodes[443] missingRequested:count 15993
scalar Network.nodes[443] newGossipReceived:count 11316
scalar Network.nodes[443] newGossipEmitted:count 1
scalar Network.nodes[444] missingRequested:count 14931
scalar Network.nodes[444] newGossipReceived:count 11314
scalar Network.nodes[444] newGossipEmitted:count 3
scalar Network.nodes[445] missingRequested:count 14872
scalar Network.nodes[445] newGossipReceived:count 11316
scalar Network.nodes[445] newGossipEmitted:count 1
scalar Network.nodes[446] missingRequested:count 15406
scalar Network.nodes[446] newGossipReceived:count 11315
scalar Network.nodes[446] newGossipEmitted:count 1
scalar Network.nodes[447] missingRequested:count 15508
scalar Network.nodes[447] newGossipReceived:count 11314
scalar Network.nodes[447] newGossipEmitted:count 3
scalar Network.nodes[448] missingRequested:count 14003
scalar Network.nodes[448] newGossipReceived:count 11316
scalar Network.nodes[448] newGossipEmitted:count 1
scalar Network.nodes[449] missingRequested:count 13636
scalar Network.nodes[449] newGossipReceived:count 11315
scalar Network.nodes[449] newGossipEmitted:count 1
scalar Network.nodes[450] missingRequested:count 16196
scalar Network.nodes[450] newGossipReceived:count 11316
scalar Network.nodes[450] newGossipEmitted:count 1
scalar Network.nodes[451] missingRequested:count 16509
scalar Network.nodes[451] newGossipReceived:count 11316
scalar Network.nodes[451] newGossipEmitted:count 1
scalar Network.nodes[452] missingRequested:count 13343
scalar Network.nodes[452] newGossipReceived:count 11316
scalar Network.nodes[452] newGossipEmitted:count 1
scalar Network.nodes[453] missingRequested:count 15258
scalar Network.nodes[453] newGossipReceived:count 11316
scalar Network.nodes[453] newGossipEmitted:count 1
scalar Network.nodes[454] missingRequested:count 16540
scalar Network.nodes[454] newGossipReceived:count 11316
scalar Network.nodes[454] newGossipEmitted:count 1
scalar Network.nodes[455] missingRequested:count 15815
scalar Network.nodes[455] newGossipReceived:count 11316
scalar Network.nodes[455] newGossipEmitted:count 1
scalar Network.nodes[456] missingRequested:count 15287
scalar Network.nodes[456] newGossipReceived:count 11316
scalar Network.nodes[456] newGossipEmitted:count 1
scalar Network.nodes[457] missingRequested:count 16158
scalar Network.nodes[457] newGossipReceived:count 11315
scalar Network.nodes[457] newGossipEmitted:count 1
scalar Network.nodes[458] missingRequested:count 16668
scalar Network.nodes[458] newGossipReceived:count 11316
scalar Network.nodes[458] newGossipEmitted:count 1
scalar Network.nodes[459] missingRequested:count 15630
scalar Network.nodes[459] newGossipReceived:count 11315
scalar Network.nodes[459] newGossipEmitted:count 1
scalar Network.nodes[460] missingRequested:count 14575
scalar Network.nodes[460] newGossipReceived:count 11314
scalar Network.nodes[460] newGossipEmitted:count 2
scalar Network.nodes[461] missingRequested:count 15896
scalar Network.nodes[461] newGossipReceived:count 11316
scalar Network.nodes[461] newGossipEmitted:count 1
scalar Network.nodes[462] missingRequested:count 16256
scalar Network.nodes[462] newGossipReceived:count 11316
scalar Network.nodes[462] newGossipEmitted:count 1
scalar Network.nodes[463] missingRequested:count 14282
scalar Network.nodes[463] newGossipReceived:count 11315
scalar Network.nodes[463] newGossipEmitted:count 1
scalar Network.nodes[464] missingRequested:count 15368
scalar Network.nodes[464] newGossipReceived:count 11315
scalar Network.nodes[464] newGossipEmitted:count 1
scalar Network.nodes[465] missingRequested:count 14419
scalar Network.nodes[465] newGossipReceived:count 11315
scalar Network.nodes[465] newGossipEmitted:count 1
scalar Network.nodes[466] missingRequested:count 14904
scalar Network.nodes[466] newGossipReceived:count 11315
scalar Network.nodes[466] newGossipEmitted:count 1
scalar Network.nodes[467] missingRequested:count 17096
scalar Network.nodes[467] newGossipReceived:count 11316
scalar Network.nodes[467] newGossipEmitted:count 1
scalar Network.nodes[468] missingRequested:count 15790
scalar Network.nodes[468] newGossipReceived:count 11315
scalar Network.nodes[468] newGossipEmitted:count 1
scalar Network.nodes[469] missingRequested:count 16380
scalar Network.nodes[469] newGossipReceived:count 11316
scalar Network.nodes[469] newGossipEmitted:count 1
scalar Network.nodes[470] missingRequested:count 14808
scalar Network.nodes[470] newGossipReceived:count 11316
scalar Network.nodes[470] newGossipEmitted:count 1
scalar Network.nodes[471] missingRequested:count 14905
scalar Network.nodes[471] newGossipReceived:count 11316
scalar Network.nodes[471] newGossipEmitted:count 1
scalar Network.nodes[472] missingRequested:count 15153
scalar Network.nodes[472] newGossipReceived:count 11316
scalar Network.nodes[472] newGossipEmitted:count 1
scalar Network.nodes[473] missingRequested:count 14621
scalar Network.nodes[473] newGossipReceived:count 11316
scalar Network.nodes[473] newGossipEmitted:count 1
scalar Network.nodes[474] missingRequested:count 15164
scalar Network.nodes[474] newGossipReceived:count 11316
scalar Network.nodes[474] newGossipEmitted:count 1
scalar Network.nodes[475] missingRequested:count 15594
scalar Network.nodes[475] newGossipReceived:count 11316
scalar Network.nodes[475] newGossipEmitted:count 1
scalar Network.nodes[476] missingRequested:count 13653
scalar Network.nodes[476] newGossipReceived:count 11315
scalar Network.nodes[476] newGossipEmitted:count 2
scalar Network.nodes[477] missingRequested:count 14686
scalar Network.nodes[477] newGossipReceived:count 11316
scalar Network.nodes[477] newGossipEmitted:count 1
scalar Network.nodes[478] missingRequested:count 16271
scalar Network.nodes[478] newGossipReceived:count 11316
scalar Network.nodes[478] newGossipEmitted:count 1
scalar Network.nodes[479] missingRequested:count 13674
scalar Network.nodes[479] newGossipReceived:count 11316
scalar Network.nodes[479] newGossipEmitted:count 1
scalar Network.nodes[480] missingRequested:count 14612
scalar Network.nodes[480] newGossipReceived:count 11316
scalar Network.nodes[480] newGossipEmitted:count 1
scalar Network.nodes[481] missingRequested:count 16520
scalar Network.nodes[481] newGossipReceived:count 11316
scalar Network.nodes[481] newGossipEmitted:count 1
scalar Network.nodes[482] missingRequested:count 15333
scalar Network.nodes[482] newGossipReceived:count 11315
scalar Network.nodes[482] newGossipEmitted:count 1
scalar Network.nodes[483] missingRequested:count 15488
scalar Network.nodes[483] newGossipReceived:count 11315
scalar Network.nodes[483] newGossipEmitted:count 1
scalar Network.nodes[484] missingRequested:count 14535
[...]
scalar Network.nodes[9886] newGossipEmitted:count 1
scalar Network.nodes[9887] missingRequested:count 15621
scalar Network.nodes[9887] newGossipReceived:count 11317
scalar Network.nodes[9887] newGossipEmitted:count 0
scalar Network.nodes[9888] missingRequested:count 16120
scalar Network.nodes[9888] newGossipReceived:count 11316
scalar Network.nodes[9888] newGossipEmitted:count 1
scalar Network.nodes[9889] missingRequested:count 15293
scalar Network.nodes[9889] newGossipReceived:count 11316
scalar Network.nodes[9889] newGossipEmitted:count 1
scalar Network.nodes[9890] missingRequested:count 14198
scalar Network.nodes[9890] newGossipReceived:count 11316
scalar Network.nodes[9890] newGossipEmitted:count 1
scalar Network.nodes[9891] missingRequested:count 16197
scalar Network.nodes[9891] newGossipReceived:count 11316
scalar Network.nodes[9891] newGossipEmitted:count 1
scalar Network.nodes[9892] missingRequested:count 15016
scalar Network.nodes[9892] newGossipReceived:count 11315
scalar Network.nodes[9892] newGossipEmitted:count 1
scalar Network.nodes[9893] missingRequested:count 15659
scalar Network.nodes[9893] newGossipReceived:count 11315
scalar Network.nodes[9893] newGossipEmitted:count 2
scalar Network.nodes[9894] missingRequested:count 16024
scalar Network.nodes[9894] newGossipReceived:count 11316
scalar Network.nodes[9894] newGossipEmitted:count 1
scalar Network.nodes[9895] missingRequested:count 16100
scalar Network.nodes[9895] newGossipReceived:count 11314
scalar Network.nodes[9895] newGossipEmitted:count 2
scalar Network.nodes[9896] missingRequested:count 14473
scalar Network.nodes[9896] newGossipReceived:count 11316
scalar Network.nodes[9896] newGossipEmitted:count 1
scalar Network.nodes[9897] missingRequested:count 14617
scalar Network.nodes[9897] newGossipReceived:count 11316
scalar Network.nodes[9897] newGossipEmitted:count 1
scalar Network.nodes[9898] missingRequested:count 15983
scalar Network.nodes[9898] newGossipReceived:count 11314
scalar Network.nodes[9898] newGossipEmitted:count 2
scalar Network.nodes[9899] missingRequested:count 16196
scalar Network.nodes[9899] newGossipReceived:count 11316
scalar Network.nodes[9899] newGossipEmitted:count 1
scalar Network.nodes[9900] missingRequested:count 14706
scalar Network.nodes[9900] newGossipReceived:count 11315
scalar Network.nodes[9900] newGossipEmitted:count 1
scalar Network.nodes[9901] missingRequested:count 15176
scalar Network.nodes[9901] newGossipReceived:count 11316
scalar Network.nodes[9901] newGossipEmitted:count 1
scalar Network.nodes[9902] missingRequested:count 14992
scalar Network.nodes[9902] newGossipReceived:count 11316
scalar Network.nodes[9902] newGossipEmitted:count 1
scalar Network.nodes[9903] missingRequested:count 14686
scalar Network.nodes[9903] newGossipReceived:count 11317
scalar Network.nodes[9903] newGossipEmitted:count 0
scalar Network.nodes[9904] missingRequested:count 15268
scalar Network.nodes[9904] newGossipReceived:count 11315
scalar Network.nodes[9904] newGossipEmitted:count 2
scalar Network.nodes[9905] missingRequested:count 16530
scalar Network.nodes[9905] newGossipReceived:count 11316
scalar Network.nodes[9905] newGossipEmitted:count 1
scalar Network.nodes[9906] missingRequested:count 15970
scalar Network.nodes[9906] newGossipReceived:count 11316
scalar Network.nodes[9906] newGossipEmitted:count 1
scalar Network.nodes[9907] missingRequested:count 15822
scalar Network.nodes[9907] newGossipReceived:count 11315
scalar Network.nodes[9907] newGossipEmitted:count 2
scalar Network.nodes[9908] missingRequested:count 12176
scalar Network.nodes[9908] newGossipReceived:count 11315
scalar Network.nodes[9908] newGossipEmitted:count 1
scalar Network.nodes[9909] missingRequested:count 16523
scalar Network.nodes[9909] newGossipReceived:count 11316
scalar Network.nodes[9909] newGossipEmitted:count 1
scalar Network.nodes[9910] missingRequested:count 14452
scalar Network.nodes[9910] newGossipReceived:count 11317
scalar Network.nodes[9910] newGossipEmitted:count 0
scalar Network.nodes[9911] missingRequested:count 15824
scalar Network.nodes[9911] newGossipReceived:count 11316
scalar Network.nodes[9911] newGossipEmitted:count 1
scalar Network.nodes[9912] missingRequested:count 15540
scalar Network.nodes[9912] newGossipReceived:count 11315
scalar Network.nodes[9912] newGossipEmitted:count 1
scalar Network.nodes[9913] missingRequested:count 13981
scalar Network.nodes[9913] newGossipReceived:count 11316
scalar Network.nodes[9913] newGossipEmitted:count 1
scalar Network.nodes[9914] missingRequested:count 15619
scalar Network.nodes[9914] newGossipReceived:count 11316
scalar Network.nodes[9914] newGossipEmitted:count 1
scalar Network.nodes[9915] missingRequested:count 15378
scalar Network.nodes[9915] newGossipReceived:count 11316
scalar Network.nodes[9915] newGossipEmitted:count 1
scalar Network.nodes[9916] missingRequested:count 15079
scalar Network.nodes[9916] newGossipReceived:count 11315
scalar Network.nodes[9916] newGossipEmitted:count 1
scalar Network.nodes[9917] missingRequested:count 16145
scalar Network.nodes[9917] newGossipReceived:count 11315
scalar Network.nodes[9917] newGossipEmitted:count 1
scalar Network.nodes[9918] missingRequested:count 14252
scalar Network.nodes[9918] newGossipReceived:count 11316
scalar Network.nodes[9918] newGossipEmitted:count 1
scalar Network.nodes[9919] missingRequested:count 15270
scalar Network.nodes[9919] newGossipReceived:count 11316
scalar Network.nodes[9919] newGossipEmitted:count 1
scalar Network.nodes[9920] missingRequested:count 16126
scalar Network.nodes[9920] newGossipReceived:count 11316
scalar Network.nodes[9920] newGossipEmitted:count 1
scalar Network.nodes[9921] missingRequested:count 16339
scalar Network.nodes[9921] newGossipReceived:count 11314
scalar Network.nodes[9921] newGossipEmitted:count 3
scalar Network.nodes[9922] missingRequested:count 15429
scalar Network.nodes[9922] newGossipReceived:count 11317
scalar Network.nodes[9922] newGossipEmitted:count 0
scalar Network.nodes[9923] missingRequested:count 12492
scalar Network.nodes[9923] newGossipReceived:count 11316
scalar Network.nodes[9923] newGossipEmitted:count 1
scalar Network.nodes[9924] missingRequested:count 14154
scalar Network.nodes[9924] newGossipReceived:count 11317
scalar Network.nodes[9924] newGossipEmitted:count 0
scalar Network.nodes[9925] missingRequested:count 15024
scalar Network.nodes[9925] newGossipReceived:count 11315
scalar Network.nodes[9925] newGossipEmitted:count 1
scalar Network.nodes[9926] missingRequested:count 14267
scalar Network.nodes[9926] newGossipReceived:count 11316
scalar Network.nodes[9926] newGossipEmitted:count 1
scalar Network.nodes[9927] missingRequested:count 16207
scalar Network.nodes[9927] newGossipReceived:count 11315
scalar Network.nodes[9927] newGossipEmitted:count 2
scalar Network.nodes[9928] missingRequested:count 16227
scalar Network.nodes[9928] newGossipReceived:count 11316
scalar Network.nodes[9928] newGossipEmitted:count 1
scalar Network.nodes[9929] missingRequested:count 14727
scalar Network.nodes[9929] newGossipReceived:count 11316
scalar Network.nodes[9929] newGossipEmitted:count 1
scalar Network.nodes[9930] missingRequested:count 14199
scalar Network.nodes[9930] newGossipReceived:count 11316
scalar Network.nodes[9930] newGossipEmitted:count 1
scalar Network.nodes[9931] missingRequested:count 14139
scalar Network.nodes[9931] newGossipReceived:count 11316
scalar Network.nodes[9931] newGossipEmitted:count 1
scalar Network.nodes[9932] missingRequested:count 14484
scalar Network.nodes[9932] newGossipReceived:count 11315
scalar Network.nodes[9932] newGossipEmitted:count 2
scalar Network.nodes[9933] missingRequested:count 14877
scalar Network.nodes[9933] newGossipReceived:count 11316
scalar Network.nodes[9933] newGossipEmitted:count 1
scalar Network.nodes[9934] missingRequested:count 14723
scalar Network.nodes[9934] newGossipReceived:count 11316
scalar Network.nodes[9934] newGossipEmitted:count 1
scalar Network.nodes[9935] missingRequested:count 15419
scalar Network.nodes[9935] newGossipReceived:count 11315
scalar Network.nodes[9935] newGossipEmitted:count 2
scalar Network.nodes[9936] missingRequested:count 15665
scalar Network.nodes[9936] newGossipReceived:count 11316
scalar Network.nodes[9936] newGossipEmitted:count 1
scalar Network.nodes[9937] missingRequested:count 15274
scalar Network.nodes[9937] newGossipReceived:count 11316
scalar Network.nodes[9937] newGossipEmitted:count 1
scalar Network.nodes[9938] missingRequested:count 15401
scalar Network.nodes[9938] newGossipReceived:count 11315
scalar Network.nodes[9938] newGossipEmitted:count 1
scalar Network.nodes[9939] missingRequested:count 16646
scalar Network.nodes[9939] newGossipReceived:count 11316
scalar Network.nodes[9939] newGossipEmitted:count 1
scalar Network.nodes[9940] missingRequested:count 15694
scalar Network.nodes[9940] newGossipReceived:count 11316
scalar Network.nodes[9940] newGossipEmitted:count 1
scalar Network.nodes[9941] missingRequested:count 15625
scalar Network.nodes[9941] newGossipReceived:count 11315
scalar Network.nodes[9941] newGossipEmitted:count 1
scalar Network.nodes[9942] missingRequested:count 15290
scalar Network.nodes[9942] newGossipReceived:count 11317
scalar Network.nodes[9942] newGossipEmitted:count 0
scalar Network.nodes[9943] missingRequested:count 12606
scalar Network.nodes[9943] newGossipReceived:count 11317
scalar Network.nodes[9943] newGossipEmitted:count 0
scalar Network.nodes[9944] missingRequested:count 13722
scalar Network.nodes[9944] newGossipReceived:count 11314
scalar Network.nodes[9944] newGossipEmitted:count 3
scalar Network.nodes[9945] missingRequested:count 16636
scalar Network.nodes[9945] newGossipReceived:count 11316
scalar Network.nodes[9945] newGossipEmitted:count 1
scalar Network.nodes[9946] missingRequested:count 15273
scalar Network.nodes[9946] newGossipReceived:count 11316
scalar Network.nodes[9946] newGossipEmitted:count 1
scalar Network.nodes[9947] missingRequested:count 13952
scalar Network.nodes[9947] newGossipReceived:count 11314
scalar Network.nodes[9947] newGossipEmitted:count 3
scalar Network.nodes[9948] missingRequested:count 15516
scalar Network.nodes[9948] newGossipReceived:count 11316
scalar Network.nodes[9948] newGossipEmitted:count 1
scalar Network.nodes[9949] missingRequested:count 15027
scalar Network.nodes[9949] newGossipReceived:count 11316
scalar Network.nodes[9949] newGossipEmitted:count 1
scalar Network.nodes[9950] missingRequested:count 0
scalar Network.nodes[9950] newGossipReceived:count 0
scalar Network.nodes[9950] newGossipEmitted:count 1
scalar Network.nodes[9951] missingRequested:count 15294
scalar Network.nodes[9951] newGossipReceived:count 11316
scalar Network.nodes[9951] newGossipEmitted:count 1
scalar Network.nodes[9952] missingRequested:count 15843
scalar Network.nodes[9952] newGossipReceived:count 11316
scalar Network.nodes[9952] newGossipEmitted:count 1
scalar Network.nodes[9953] missingRequested:count 15786
scalar Network.nodes[9953] newGossipReceived:count 11315
scalar Network.nodes[9953] newGossipEmitted:count 1
scalar Network.nodes[9954] missingRequested:count 15401
scalar Network.nodes[9954] newGossipReceived:count 11315
scalar Network.nodes[9954] newGossipEmitted:count 2
scalar Network.nodes[9955] missingRequested:count 13684
scalar Network.nodes[9955] newGossipReceived:count 11316
scalar Network.nodes[9955] newGossipEmitted:count 1
scalar Network.nodes[9956] missingRequested:count 15433
scalar Network.nodes[9956] newGossipReceived:count 11316
scalar Network.nodes[9956] newGossipEmitted:count 1
scalar Network.nodes[9957] missingRequested:count 14838
scalar Network.nodes[9957] newGossipReceived:count 11314
scalar Network.nodes[9957] newGossipEmitted:count 3
scalar Network.nodes[9958] missingRequested:count 15102
scalar Network.nodes[9958] newGossipReceived:count 11316
scalar Network.nodes[9958] newGossipEmitted:count 1
scalar Network.nodes[9959] missingRequested:count 15238
scalar Network.nodes[9959] newGossipReceived:count 11316
scalar Network.nodes[9959] newGossipEmitted:count 1
scalar Network.nodes[9960] missingRequested:count 15565
scalar Network.nodes[9960] newGossipReceived:count 11316
scalar Network.nodes[9960] newGossipEmitted:count 1
scalar Network.nodes[9961] missingRequested:count 15837
scalar Network.nodes[9961] newGossipReceived:count 11317
scalar Network.nodes[9961] newGossipEmitted:count 0
scalar Network.nodes[9962] missingRequested:count 14731
scalar Network.nodes[9962] newGossipReceived:count 11315
scalar Network.nodes[9962] newGossipEmitted:count 1
scalar Network.nodes[9963] missingRequested:count 15600
scalar Network.nodes[9963] newGossipReceived:count 11315
scalar Network.nodes[9963] newGossipEmitted:count 1
scalar Network.nodes[9964] missingRequested:count 14294
scalar Network.nodes[9964] newGossipReceived:count 11316
scalar Network.nodes[9964] newGossipEmitted:count 1
scalar Network.nodes[9965] missingRequested:count 14779
scalar Network.nodes[9965] newGossipReceived:count 11316
scalar Network.nodes[9965] newGossipEmitted:count 0
scalar Network.nodes[9966] missingRequested:count 14349
scalar Network.nodes[9966] newGossipReceived:count 11316
scalar Network.nodes[9966] newGossipEmitted:count 1
scalar Network.nodes[9967] missingRequested:count 15550
scalar Network.nodes[9967] newGossipReceived:count 11316
scalar Network.nodes[9967] newGossipEmitted:count 1
scalar Network.nodes[9968] missingRequested:count 16118
scalar Network.nodes[9968] newGossipReceived:count 11315
scalar Network.nodes[9968] newGossipEmitted:count 1
scalar Network.nodes[9969] missingRequested:count 13180
scalar Network.nodes[9969] newGossipReceived:count 11316
scalar Network.nodes[9969] newGossipEmitted:count 1
scalar Network.nodes[9970] missingRequested:count 15829
scalar Network.nodes[9970] newGossipReceived:count 11317
scalar Network.nodes[9970] newGossipEmitted:count 0
scalar Network.nodes[9971] missingRequested:count 15901
scalar Network.nodes[9971] newGossipReceived:count 11316
scalar Network.nodes[9971] newGossipEmitted:count 1
scalar Network.nodes[9972] missingRequested:count 12876
scalar Network.nodes[9972] newGossipReceived:count 11316
scalar Network.nodes[9972] newGossipEmitted:count 1
scalar Network.nodes[9973] missingRequested:count 15144
scalar Network.nodes[9973] newGossipReceived:count 11316
scalar Network.nodes[9973] newGossipEmitted:count 1
scalar Network.nodes[9974] missingRequested:count 15516
scalar Network.nodes[9974] newGossipReceived:count 11316
scalar Network.nodes[9974] newGossipEmitted:count 1
scalar Network.nodes[9975] missingRequested:count 15598
scalar Network.nodes[9975] newGossipReceived:count 11315
scalar Network.nodes[9975] newGossipEmitted:count 1
scalar Network.nodes[9976] missingRequested:count 15443
scalar Network.nodes[9976] newGossipReceived:count 11316
scalar Network.nodes[9976] newGossipEmitted:count 1
scalar Network.nodes[9977] missingRequested:count 16066
scalar Network.nodes[9977] newGossipReceived:count 11316
scalar Network.nodes[9977] newGossipEmitted:count 1
scalar Network.nodes[9978] missingRequested:count 11966
scalar Network.nodes[9978] newGossipReceived:count 11316
scalar Network.nodes[9978] newGossipEmitted:count 1
scalar Network.nodes[9979] missingRequested:count 15291
scalar Network.nodes[9979] newGossipReceived:count 11316
scalar Network.nodes[9979] newGossipEmitted:count 1
scalar Network.nodes[9980] missingRequested:count 15643
scalar Network.nodes[9980] newGossipReceived:count 11316
scalar Network.nodes[9980] newGossipEmitted:count 0
scalar Network.nodes[9981] missingRequested:count 16145
scalar Network.nodes[9981] newGossipReceived:count 11317
scalar Network.nodes[9981] newGossipEmitted:count 0
scalar Network.nodes[9982] missingRequested:count 14898
scalar Network.nodes[9982] newGossipReceived:count 11317
scalar Network.nodes[9982] newGossipEmitted:count 0
scalar Network.nodes[9983] missingRequested:count 10050
scalar Network.nodes[9983] newGossipReceived:count 11316
scalar Network.nodes[9983] newGossipEmitted:count 1
scalar Network.nodes[9984] missingRequested:count 14066
scalar Network.nodes[9984] newGossipReceived:count 11314
scalar Network.nodes[9984] newGossipEmitted:count 2
scalar Network.nodes[9985] missingRequested:count 14919
scalar Network.nodes[9985] newGossipReceived:count 11316
scalar Network.nodes[9985] newGossipEmitted:count 1
scalar Network.nodes[9986] missingRequested:count 15192
scalar Network.nodes[9986] newGossipReceived:count 11316
scalar Network.nodes[9986] newGossipEmitted:count 1
scalar Network.nodes[9987] missingRequested:count 15811
scalar Network.nodes[9987] newGossipReceived:count 11316
scalar Network.nodes[9987] newGossipEmitted:count 1
scalar Network.nodes[9988] missingRequested:count 16134
scalar Network.nodes[9988] newGossipReceived:count 11316
scalar Network.nodes[9988] newGossipEmitted:count 1
scalar Network.nodes[9989] missingRequested:count 15893
scalar Network.nodes[9989] newGossipReceived:count 11316
scalar Network.nodes[9989] newGossipEmitted:count 1
scalar Network.nodes[9990] missingRequested:count 15845
scalar Network.nodes[9990] newGossipReceived:count 11316
scalar Network.nodes[9990] newGossipEmitted:count 1
scalar Network.nodes[9991] missingRequested:count 16117
scalar Network.nodes[9991] newGossipReceived:count 11315
scalar Network.nodes[9991] newGossipEmitted:count 2
scalar Network.nodes[9992] missingRequested:count 15540
scalar Network.nodes[9992] newGossipReceived:count 11316
scalar Network.nodes[9992] newGossipEmitted:count 1
scalar Network.nodes[9993] missingRequested:count 16231
scalar Network.nodes[9993] newGossipReceived:count 11317
scalar Network.nodes[9993] newGossipEmitted:count 0
scalar Network.nodes[9994] missingRequested:count 15594
scalar Network.nodes[9994] newGossipReceived:count 11316
scalar Network.nodes[9994] newGossipEmitted:count 0
scalar Network.nodes[9995] missingRequested:count 14865
scalar Network.nodes[9995] newGossipReceived:count 11316
scalar Network.nodes[9995] newGossipEmitted:count 1
scalar Network.nodes[9996] missingRequested:count 13874
scalar Network.nodes[9996] newGossipReceived:count 11316
scalar Network.nodes[9996] newGossipEmitted:count 1
scalar Network.nodes[9997] missingRequested:count 15806
scalar Network.nodes[9997] newGossipReceived:count 11316
scalar Network.nodes[9997] newGossipEmitted:count 1
scalar Network.nodes[9998] missingRequested:count 15706
scalar Network.nodes[9998] newGossipReceived:count 11316
scalar Network.nodes[9998] newGossipEmitted:count 1
scalar Network.nodes[9999] missingRequested:count 15467
scalar Network.nodes[9999] newGossipReceived:count 11316
scalar Network.nodes[9999] newGossipEmitted:count 1
scalar Network messageSent:count 1863162523
scalar Network newGossipReceived:count 113132975
statistic Network newGossipReceived:histogram
field count 113132975
field mean 12.579696565038
field stddev 11.650378613645
field min 0
field max 69
field sum 1423178497
field sqrsum 33258841755
bin	-inf	0
bin	0	10103372
bin	1	9203523
bin	2	7749025
bin	3	6504740
bin	4	5537971
bin	5	4800590
bin	6	4233145
bin	7	3794987
bin	8	3446065
bin	9	3169428
bin	10	2954095
bin	11	2788097
bin	12	2663798
bin	13	2577808
bin	14	2511849
bin	15	2440995
bin	16	2342263
bin	17	2227356
bin	18	2112027
bin	19	2016406
bin	20	1939918
bin	21	1877795
bin	22	1818694
bin	23	1765251
bin	24	1711212
bin	25	1657804
bin	26	1607124
bin	27	1556545
bin	28	1504855
bin	29	1454595
bin	30	1397859
bin	31	1337274
bin	32	1266612
bin	33	1191403
bin	34	1110494
bin	35	1022681
bin	36	929017
bin	37	833109
bin	38	735494
bin	39	637742
bin	40	542703
bin	41	453790
bin	42	371773
bin	43	299326
bin	44	236768
bin	45	183773
bin	46	140376
bin	47	105475
bin	48	78294
bin	49	57312
bin	50	41433
bin	51	29145
bin	52	20168
bin	53	13713
bin	54	9199
bin	55	6100
bin	56	3948
bin	57	2591
bin	58	1630
bin	59	1028
bin	60	609
bin	61	347
bin	62	213
bin	63	118
bin	64	71
bin	65	37
bin	66	13
bin	67	2
bin	68	1
bin	69	1
bin	70	0
scalar Network newGossipEmitted:count 11320

