file 20511222 1533462555                                        
version 2
run General-2-20180805-11:40:35-26306
attr configname General
attr datetime 20180805-11:40:35
attr experiment General
attr inifile floodsub.ini
attr iterationvars $0=1000
attr iterationvarsf 1000-
attr measurement $0=1000
attr network sharding.FloodSubNetwork
attr processid 26306
attr repetition 0
attr replication #0
attr resultdir results-floodsub
attr runnumber 2
attr seedset 2
param *Network.nodeCount 1000
param *Network.gossipRate 10.0Hz
param *Network.nodes[*].source.active true
param *Network.nodes[*].source.startTime 20s
param *Network.nodes[*].source.stopTime 580s
param *Network.nodes[*].lazyNotifier.notificationInterval 0.1s
param *Network.nodes[*].missingTracker.waitTime 1s
param *Network.nodes[*].connectionManager.numRandomNeighbors 5
param *Network.nodes[*].connectionManager.numNearNeighbors 5
param *Network.nodes[*].connectionManager.passiveListSize 20
param *Network.nodes[*].connectionManager.contactNodes "\"0 1 2\""
param *Network.nodes[*].connectionManager.activeHeartbeatInterval 2.0
param *Network.nodes[*].connectionManager.joinTTL 1
param *Network.nodes[*].connectionManager.forwardJoinTTL 1
param *Network.nodes[*].connectionManager.shuffleInterval 2.0
param *Network.nodes[*].connectionManager.activeShufflingSize 5
param *Network.nodes[*].connectionManager.passiveShufflingSize 5
param *Network.nodes[*].connectionManager.shuffleTTL 1

vector 0 FloodSubNetwork.nodes[126].connectionManager passiveListUpdate:vector ETV
vector 1 FloodSubNetwork.nodes[893].connectionManager passiveListUpdate:vector ETV
vector 2 FloodSubNetwork.nodes[699].connectionManager passiveListUpdate:vector ETV
vector 3 FloodSubNetwork.nodes[150].connectionManager passiveListUpdate:vector ETV
vector 4 FloodSubNetwork.nodes[491].connectionManager passiveListUpdate:vector ETV
vector 5 FloodSubNetwork.nodes[541].connectionManager passiveListUpdate:vector ETV
vector 6 FloodSubNetwork.nodes[398].connectionManager passiveListUpdate:vector ETV
vector 7 FloodSubNetwork.nodes[298].connectionManager passiveListUpdate:vector ETV
vector 8 FloodSubNetwork.nodes[155].connectionManager passiveListUpdate:vector ETV
vector 9 FloodSubNetwork.nodes[656].connectionManager passiveListUpdate:vector ETV
vector 10 FloodSubNetwork.nodes[631].connectionManager passiveListUpdate:vector ETV
vector 11 FloodSubNetwork.nodes[760].connectionManager passiveListUpdate:vector ETV
vector 12 FloodSubNetwork.nodes[188].connectionManager passiveListUpdate:vector ETV
vector 13 FloodSubNetwork.nodes[868].connectionManager passiveListUpdate:vector ETV
vector 14 FloodSubNetwork.nodes[467].connectionManager passiveListUpdate:vector ETV
vector 15 FloodSubNetwork.nodes[787].connectionManager passiveListUpdate:vector ETV
vector 16 FloodSubNetwork.nodes[508].connectionManager passiveListUpdate:vector ETV
vector 17 FloodSubNetwork.nodes[766].connectionManager passiveListUpdate:vector ETV
vector 18 FloodSubNetwork.nodes[870].connectionManager passiveListUpdate:vector ETV
vector 19 FloodSubNetwork.nodes[525].connectionManager passiveListUpdate:vector ETV
vector 20 FloodSubNetwork.nodes[659].connectionManager passiveListUpdate:vector ETV
vector 21 FloodSubNetwork.nodes[159].connectionManager passiveListUpdate:vector ETV
vector 22 FloodSubNetwork.nodes[737].connectionManager passiveListUpdate:vector ETV
vector 23 FloodSubNetwork.nodes[895].connectionManager passiveListUpdate:vector ETV
vector 24 FloodSubNetwork.nodes[300].connectionManager passiveListUpdate:vector ETV
vector 25 FloodSubNetwork.nodes[334].connectionManager passiveListUpdate:vector ETV
vector 26 FloodSubNetwork.nodes[720].connectionManager passiveListUpdate:vector ETV
vector 27 FloodSubNetwork.nodes[270].connectionManager passiveListUpdate:vector ETV
vector 28 FloodSubNetwork.nodes[718].connectionManager passiveListUpdate:vector ETV
vector 29 FloodSubNetwork.nodes[924].connectionManager passiveListUpdate:vector ETV
vector 30 FloodSubNetwork.nodes[376].connectionManager passiveListUpdate:vector ETV
vector 31 FloodSubNetwork.nodes[194].connectionManager passiveListUpdate:vector ETV
vector 32 FloodSubNetwork.nodes[975].connectionManager passiveListUpdate:vector ETV
vector 33 FloodSubNetwork.nodes[307].connectionManager passiveListUpdate:vector ETV
vector 34 FloodSubNetwork.nodes[23].connectionManager passiveListUpdate:vector ETV
vector 35 FloodSubNetwork.nodes[286].connectionManager passiveListUpdate:vector ETV
vector 36 FloodSubNetwork.nodes[658].connectionManager passiveListUpdate:vector ETV
vector 37 FloodSubNetwork.nodes[250].connectionManager passiveListUpdate:vector ETV
vector 38 FloodSubNetwork.nodes[618].connectionManager passiveListUpdate:vector ETV
vector 39 FloodSubNetwork.nodes[968].connectionManager passiveListUpdate:vector ETV
vector 40 FloodSubNetwork.nodes[762].connectionManager passiveListUpdate:vector ETV
vector 41 FloodSubNetwork.nodes[381].connectionManager passiveListUpdate:vector ETV
vector 42 FloodSubNetwork.nodes[214].connectionManager passiveListUpdate:vector ETV
vector 43 FloodSubNetwork.nodes[564].connectionManager passiveListUpdate:vector ETV
vector 44 FloodSubNetwork.nodes[634].connectionManager passiveListUpdate:vector ETV
vector 45 FloodSubNetwork.nodes[38].connectionManager passiveListUpdate:vector ETV
vector 46 FloodSubNetwork.nodes[456].connectionManager passiveListUpdate:vector ETV
vector 47 FloodSubNetwork.nodes[224].connectionManager passiveListUpdate:vector ETV
vector 48 FloodSubNetwork.nodes[538].connectionManager passiveListUpdate:vector ETV
vector 49 FloodSubNetwork.nodes[193].connectionManager passiveListUpdate:vector ETV
vector 50 FloodSubNetwork.nodes[795].connectionManager passiveListUpdate:vector ETV
vector 51 FloodSubNetwork.nodes[257].connectionManager passiveListUpdate:vector ETV
vector 52 FloodSubNetwork.nodes[809].connectionManager passiveListUpdate:vector ETV
vector 53 FloodSubNetwork.nodes[855].connectionManager passiveListUpdate:vector ETV
vector 54 FloodSubNetwork.nodes[885].connectionManager passiveListUpdate:vector ETV
vector 55 FloodSubNetwork.nodes[562].connectionManager passiveListUpdate:vector ETV
vector 56 FloodSubNetwork.nodes[547].connectionManager passiveListUpdate:vector ETV
vector 57 FloodSubNetwork.nodes[601].connectionManager passiveListUpdate:vector ETV
vector 58 FloodSubNetwork.nodes[321].connectionManager passiveListUpdate:vector ETV
vector 59 FloodSubNetwork.nodes[892].connectionManager passiveListUpdate:vector ETV
vector 60 FloodSubNetwork.nodes[173].connectionManager passiveListUpdate:vector ETV
vector 61 FloodSubNetwork.nodes[627].connectionManager passiveListUpdate:vector ETV
vector 62 FloodSubNetwork.nodes[537].connectionManager passiveListUpdate:vector ETV
vector 63 FloodSubNetwork.nodes[21].connectionManager passiveListUpdate:vector ETV
vector 64 FloodSubNetwork.nodes[692].connectionManager passiveListUpdate:vector ETV
vector 65 FloodSubNetwork.nodes[715].connectionManager passiveListUpdate:vector ETV
vector 66 FloodSubNetwork.nodes[646].connectionManager passiveListUpdate:vector ETV
vector 67 FloodSubNetwork.nodes[713].connectionManager passiveListUpdate:vector ETV
vector 68 FloodSubNetwork.nodes[77].connectionManager passiveListUpdate:vector ETV
vector 69 FloodSubNetwork.nodes[811].connectionManager passiveListUpdate:vector ETV
vector 70 FloodSubNetwork.nodes[755].connectionManager passiveListUpdate:vector ETV
vector 71 FloodSubNetwork.nodes[550].connectionManager passiveListUpdate:vector ETV
vector 72 FloodSubNetwork.nodes[394].connectionManager passiveListUpdate:vector ETV
vector 73 FloodSubNetwork.nodes[141].connectionManager passiveListUpdate:vector ETV
vector 74 FloodSubNetwork.nodes[860].connectionManager passiveListUpdate:vector ETV
vector 75 FloodSubNetwork.nodes[921].connectionManager passiveListUpdate:vector ETV
vector 76 FloodSubNetwork.nodes[830].connectionManager passiveListUpdate:vector ETV
vector 77 FloodSubNetwork.nodes[910].connectionManager passiveListUpdate:vector ETV
vector 78 FloodSubNetwork.nodes[445].connectionManager passiveListUpdate:vector ETV
vector 79 FloodSubNetwork.nodes[238].connectionManager passiveListUpdate:vector ETV
vector 80 FloodSubNetwork.nodes[81].connectionManager passiveListUpdate:vector ETV
vector 81 FloodSubNetwork.nodes[984].connectionManager passiveListUpdate:vector ETV
vector 82 FloodSubNetwork.nodes[375].connectionManager passiveListUpdate:vector ETV
vector 83 FloodSubNetwork.nodes[736].connectionManager passiveListUpdate:vector ETV
vector 84 FloodSubNetwork.nodes[877].connectionManager passiveListUpdate:vector ETV
vector 85 FloodSubNetwork.nodes[962].connectionManager passiveListUpdate:vector ETV
vector 86 FloodSubNetwork.nodes[272].connectionManager passiveListUpdate:vector ETV
vector 87 FloodSubNetwork.nodes[156].connectionManager passiveListUpdate:vector ETV
vector 88 FloodSubNetwork.nodes[258].connectionManager passiveListUpdate:vector ETV
vector 89 FloodSubNetwork.nodes[414].connectionManager passiveListUpdate:vector ETV
vector 90 FloodSubNetwork.nodes[288].connectionManager passiveListUpdate:vector ETV
vector 91 FloodSubNetwork.nodes[858].connectionManager passiveListUpdate:vector ETV
vector 92 FloodSubNetwork.nodes[960].connectionManager passiveListUpdate:vector ETV
vector 93 FloodSubNetwork.nodes[534].connectionManager passiveListUpdate:vector ETV
vector 94 FloodSubNetwork.nodes[157].connectionManager passiveListUpdate:vector ETV
vector 95 FloodSubNetwork.nodes[213].connectionManager passiveListUpdate:vector ETV
vector 96 FloodSubNetwork.nodes[359].connectionManager passiveListUpdate:vector ETV
vector 97 FloodSubNetwork.nodes[700].connectionManager passiveListUpdate:vector ETV
vector 98 FloodSubNetwork.nodes[203].connectionManager passiveListUpdate:vector ETV
vector 99 FloodSubNetwork.nodes[161].connectionManager passiveListUpdate:vector ETV
vector 100 FloodSubNetwork.nodes[927].connectionManager passiveListUpdate:vector ETV
vector 101 FloodSubNetwork.nodes[106].connectionManager passiveListUpdate:vector ETV
vector 102 FloodSubNetwork.nodes[992].connectionManager passiveListUpdate:vector ETV
vector 103 FloodSubNetwork.nodes[387].connectionManager passiveListUpdate:vector ETV
vector 104 FloodSubNetwork.nodes[94].connectionManager passiveListUpdate:vector ETV
vector 105 FloodSubNetwork.nodes[26].connectionManager passiveListUpdate:vector ETV
vector 106 FloodSubNetwork.nodes[428].connectionManager passiveListUpdate:vector ETV
vector 107 FloodSubNetwork.nodes[330].connectionManager passiveListUpdate:vector ETV
vector 108 FloodSubNetwork.nodes[191].connectionManager passiveListUpdate:vector ETV
vector 109 FloodSubNetwork.nodes[649].connectionManager passiveListUpdate:vector ETV
vector 110 FloodSubNetwork.nodes[263].connectionManager passiveListUpdate:vector ETV
vector 111 FloodSubNetwork.nodes[560].connectionManager passiveListUpdate:vector ETV
vector 112 FloodSubNetwork.nodes[364].connectionManager passiveListUpdate:vector ETV
vector 113 FloodSubNetwork.nodes[650].connectionManager passiveListUpdate:vector ETV
vector 114 FloodSubNetwork.nodes[247].connectionManager passiveListUpdate:vector ETV
vector 115 FloodSubNetwork.nodes[128].connectionManager passiveListUpdate:vector ETV
vector 116 FloodSubNetwork.nodes[849].connectionManager passiveListUpdate:vector ETV
vector 117 FloodSubNetwork.nodes[890].connectionManager passiveListUpdate:vector ETV
vector 118 FloodSubNetwork.nodes[657].connectionManager passiveListUpdate:vector ETV
vector 119 FloodSubNetwork.nodes[5].connectionManager passiveListUpdate:vector ETV
vector 120 FloodSubNetwork.nodes[125].connectionManager passiveListUpdate:vector ETV
vector 121 FloodSubNetwork.nodes[535].connectionManager passiveListUpdate:vector ETV
vector 122 FloodSubNetwork.nodes[320].connectionManager passiveListUpdate:vector ETV
vector 123 FloodSubNetwork.nodes[89].connectionManager passiveListUpdate:vector ETV
vector 124 FloodSubNetwork.nodes[134].connectionManager passiveListUpdate:vector ETV
vector 125 FloodSubNetwork.nodes[521].connectionManager passiveListUpdate:vector ETV
vector 126 FloodSubNetwork.nodes[395].connectionManager passiveListUpdate:vector ETV
vector 127 FloodSubNetwork.nodes[305].connectionManager passiveListUpdate:vector ETV
vector 128 FloodSubNetwork.nodes[498].connectionManager passiveListUpdate:vector ETV
vector 129 FloodSubNetwork.nodes[944].connectionManager passiveListUpdate:vector ETV
vector 130 FloodSubNetwork.nodes[536].connectionManager passiveListUpdate:vector ETV
vector 131 FloodSubNetwork.nodes[264].connectionManager passiveListUpdate:vector ETV
vector 132 FloodSubNetwork.nodes[553].connectionManager passiveListUpdate:vector ETV
vector 133 FloodSubNetwork.nodes[982].connectionManager passiveListUpdate:vector ETV
vector 134 FloodSubNetwork.nodes[253].connectionManager passiveListUpdate:vector ETV
vector 135 FloodSubNetwork.nodes[916].connectionManager passiveListUpdate:vector ETV
vector 136 FloodSubNetwork.nodes[29].connectionManager passiveListUpdate:vector ETV
vector 137 FloodSubNetwork.nodes[522].connectionManager passiveListUpdate:vector ETV
vector 138 FloodSubNetwork.nodes[819].connectionManager passiveListUpdate:vector ETV
vector 139 FloodSubNetwork.nodes[980].connectionManager passiveListUpdate:vector ETV
vector 140 FloodSubNetwork.nodes[681].connectionManager passiveListUpdate:vector ETV
vector 141 FloodSubNetwork.nodes[340].connectionManager passiveListUpdate:vector ETV
vector 142 FloodSubNetwork.nodes[448].connectionManager passiveListUpdate:vector ETV
vector 143 FloodSubNetwork.nodes[606].connectionManager passiveListUpdate:vector ETV
vector 144 FloodSubNetwork.nodes[808].connectionManager passiveListUpdate:vector ETV
vector 145 FloodSubNetwork.nodes[573].connectionManager passiveListUpdate:vector ETV
vector 146 FloodSubNetwork.nodes[567].connectionManager passiveListUpdate:vector ETV
vector 147 FloodSubNetwork.nodes[977].connectionManager passiveListUpdate:vector ETV
vector 148 FloodSubNetwork.nodes[22].connectionManager passiveListUpdate:vector ETV
vector 149 FloodSubNetwork.nodes[336].connectionManager passiveListUpdate:vector ETV
vector 150 FloodSubNetwork.nodes[501].connectionManager passiveListUpdate:vector ETV
vector 151 FloodSubNetwork.nodes[765].connectionManager passiveListUpdate:vector ETV
vector 152 FloodSubNetwork.nodes[212].connectionManager passiveListUpdate:vector ETV
vector 153 FloodSubNetwork.nodes[696].connectionManager passiveListUpdate:vector ETV
vector 154 FloodSubNetwork.nodes[138].connectionManager passiveListUpdate:vector ETV
vector 155 FloodSubNetwork.nodes[496].connectionManager passiveListUpdate:vector ETV
vector 156 FloodSubNetwork.nodes[384].connectionManager passiveListUpdate:vector ETV
vector 157 FloodSubNetwork.nodes[731].connectionManager passiveListUpdate:vector ETV
vector 158 FloodSubNetwork.nodes[951].connectionManager passiveListUpdate:vector ETV
vector 159 FloodSubNetwork.nodes[963].connectionManager passiveListUpdate:vector ETV
vector 160 FloodSubNetwork.nodes[133].connectionManager passiveListUpdate:vector ETV
vector 161 FloodSubNetwork.nodes[600].connectionManager passiveListUpdate:vector ETV
vector 162 FloodSubNetwork.nodes[978].connectionManager passiveListUpdate:vector ETV
vector 163 FloodSubNetwork.nodes[758].connectionManager passiveListUpdate:vector ETV
vector 164 FloodSubNetwork.nodes[528].connectionManager passiveListUpdate:vector ETV
vector 165 FloodSubNetwork.nodes[582].connectionManager passiveListUpdate:vector ETV
vector 166 FloodSubNetwork.nodes[413].connectionManager passiveListUpdate:vector ETV
vector 167 FloodSubNetwork.nodes[139].connectionManager passiveListUpdate:vector ETV
vector 168 FloodSubNetwork.nodes[302].connectionManager passiveListUpdate:vector ETV
vector 169 FloodSubNetwork.nodes[480].connectionManager passiveListUpdate:vector ETV
vector 170 FloodSubNetwork.nodes[889].connectionManager passiveListUpdate:vector ETV
vector 171 FloodSubNetwork.nodes[792].connectionManager passiveListUpdate:vector ETV
vector 172 FloodSubNetwork.nodes[886].connectionManager passiveListUpdate:vector ETV
vector 173 FloodSubNetwork.nodes[297].connectionManager passiveListUpdate:vector ETV
vector 174 FloodSubNetwork.nodes[174].connectionManager passiveListUpdate:vector ETV
vector 175 FloodSubNetwork.nodes[235].connectionManager passiveListUpdate:vector ETV
vector 176 FloodSubNetwork.nodes[722].connectionManager passiveListUpdate:vector ETV
vector 177 FloodSubNetwork.nodes[981].connectionManager passiveListUpdate:vector ETV
vector 178 FloodSubNetwork.nodes[873].connectionManager passiveListUpdate:vector ETV
vector 179 FloodSubNetwork.nodes[882].connectionManager passiveListUpdate:vector ETV
vector 180 FloodSubNetwork.nodes[289].connectionManager passiveListUpdate:vector ETV
vector 181 FloodSubNetwork.nodes[969].connectionManager passiveListUpdate:vector ETV
vector 182 FloodSubNetwork.nodes[244].connectionManager passiveListUpdate:vector ETV
vector 183 FloodSubNetwork.nodes[754].connectionManager passiveListUpdate:vector ETV
vector 184 FloodSubNetwork.nodes[936].connectionManager passiveListUpdate:vector ETV
vector 185 FloodSubNetwork.nodes[853].connectionManager passiveListUpdate:vector ETV
vector 186 FloodSubNetwork.nodes[101].connectionManager passiveListUpdate:vector ETV
vector 187 FloodSubNetwork.nodes[555].connectionManager passiveListUpdate:vector ETV
vector 188 FloodSubNetwork.nodes[788].connectionManager passiveListUpdate:vector ETV
vector 189 FloodSubNetwork.nodes[356].connectionManager passiveListUpdate:vector ETV
vector 190 FloodSubNetwork.nodes[514].connectionManager passiveListUpdate:vector ETV
vector 191 FloodSubNetwork.nodes[661].connectionManager passiveListUpdate:vector ETV
vector 192 FloodSubNetwork.nodes[326].connectionManager passiveListUpdate:vector ETV
vector 193 FloodSubNetwork.nodes[946].connectionManager passiveListUpdate:vector ETV
vector 194 FloodSubNetwork.nodes[24].connectionManager passiveListUpdate:vector ETV
vector 195 FloodSubNetwork.nodes[847].connectionManager passiveListUpdate:vector ETV
vector 196 FloodSubNetwork.nodes[483].connectionManager passiveListUpdate:vector ETV
vector 197 FloodSubNetwork.nodes[609].connectionManager passiveListUpdate:vector ETV
vector 198 FloodSubNetwork.nodes[54].connectionManager passiveListUpdate:vector ETV
vector 199 FloodSubNetwork.nodes[217].connectionManager passiveListUpdate:vector ETV
vector 200 FloodSubNetwork.nodes[695].connectionManager passiveListUpdate:vector ETV
vector 201 FloodSubNetwork.nodes[79].connectionManager passiveListUpdate:vector ETV
vector 202 FloodSubNetwork.nodes[12].connectionManager passiveListUpdate:vector ETV
vector 203 FloodSubNetwork.nodes[863].connectionManager passiveListUpdate:vector ETV
vector 204 FloodSubNetwork.nodes[876].connectionManager passiveListUpdate:vector ETV
vector 205 FloodSubNetwork.nodes[848].connectionManager passiveListUpdate:vector ETV
vector 206 FloodSubNetwork.nodes[798].connectionManager passiveListUpdate:vector ETV
vector 207 FloodSubNetwork.nodes[625].connectionManager passiveListUpdate:vector ETV
vector 208 FloodSubNetwork.nodes[287].connectionManager passiveListUpdate:vector ETV
vector 209 FloodSubNetwork.nodes[114].connectionManager passiveListUpdate:vector ETV
vector 210 FloodSubNetwork.nodes[123].connectionManager passiveListUpdate:vector ETV
vector 211 FloodSubNetwork.nodes[296].connectionManager passiveListUpdate:vector ETV
vector 212 FloodSubNetwork.nodes[237].connectionManager passiveListUpdate:vector ETV
vector 213 FloodSubNetwork.nodes[704].connectionManager passiveListUpdate:vector ETV
vector 214 FloodSubNetwork.nodes[902].connectionManager passiveListUpdate:vector ETV
vector 215 FloodSubNetwork.nodes[43].connectionManager passiveListUpdate:vector ETV
vector 216 FloodSubNetwork.nodes[628].connectionManager passiveListUpdate:vector ETV
vector 217 FloodSubNetwork.nodes[285].connectionManager passiveListUpdate:vector ETV
vector 218 FloodSubNetwork.nodes[768].connectionManager passiveListUpdate:vector ETV
vector 219 FloodSubNetwork.nodes[805].connectionManager passiveListUpdate:vector ETV
vector 220 FloodSubNetwork.nodes[748].connectionManager passiveListUpdate:vector ETV
vector 221 FloodSubNetwork.nodes[926].connectionManager passiveListUpdate:vector ETV
vector 222 FloodSubNetwork.nodes[749].connectionManager passiveListUpdate:vector ETV
vector 223 FloodSubNetwork.nodes[814].connectionManager passiveListUpdate:vector ETV
vector 224 FloodSubNetwork.nodes[559].connectionManager passiveListUpdate:vector ETV
vector 225 FloodSubNetwork.nodes[293].connectionManager passiveListUpdate:vector ETV
vector 226 FloodSubNetwork.nodes[425].connectionManager passiveListUpdate:vector ETV
vector 227 FloodSubNetwork.nodes[548].connectionManager passiveListUpdate:vector ETV
vector 228 FloodSubNetwork.nodes[903].connectionManager passiveListUpdate:vector ETV
vector 229 FloodSubNetwork.nodes[31].connectionManager passiveListUpdate:vector ETV
vector 230 FloodSubNetwork.nodes[633].connectionManager passiveListUpdate:vector ETV
vector 231 FloodSubNetwork.nodes[452].connectionManager passiveListUpdate:vector ETV
vector 232 FloodSubNetwork.nodes[328].connectionManager passiveListUpdate:vector ETV
vector 233 FloodSubNetwork.nodes[693].connectionManager passiveListUpdate:vector ETV
vector 234 FloodSubNetwork.nodes[56].connectionManager passiveListUpdate:vector ETV
vector 235 FloodSubNetwork.nodes[689].connectionManager passiveListUpdate:vector ETV
vector 236 FloodSubNetwork.nodes[844].connectionManager passiveListUpdate:vector ETV
vector 237 FloodSubNetwork.nodes[485].connectionManager passiveListUpdate:vector ETV
vector 238 FloodSubNetwork.nodes[470].connectionManager passiveListUpdate:vector ETV
vector 239 FloodSubNetwork.nodes[91].connectionManager passiveListUpdate:vector ETV
vector 240 FloodSubNetwork.nodes[294].connectionManager passiveListUpdate:vector ETV
vector 241 FloodSubNetwork.nodes[469].connectionManager passiveListUpdate:vector ETV
vector 242 FloodSubNetwork.nodes[510].connectionManager passiveListUpdate:vector ETV
vector 243 FloodSubNetwork.nodes[218].connectionManager passiveListUpdate:vector ETV
vector 244 FloodSubNetwork.nodes[605].connectionManager passiveListUpdate:vector ETV
vector 245 FloodSubNetwork.nodes[440].connectionManager passiveListUpdate:vector ETV
vector 246 FloodSubNetwork.nodes[37].connectionManager passiveListUpdate:vector ETV
vector 247 FloodSubNetwork.nodes[842].connectionManager passiveListUpdate:vector ETV
vector 248 FloodSubNetwork.nodes[129].connectionManager passiveListUpdate:vector ETV
vector 249 FloodSubNetwork.nodes[98].connectionManager passiveListUpdate:vector ETV
vector 250 FloodSubNetwork.nodes[570].connectionManager passiveListUpdate:vector ETV
vector 251 FloodSubNetwork.nodes[654].connectionManager passiveListUpdate:vector ETV
vector 252 FloodSubNetwork.nodes[542].connectionManager passiveListUpdate:vector ETV
vector 253 FloodSubNetwork.nodes[955].connectionManager passiveListUpdate:vector ETV
vector 254 FloodSubNetwork.nodes[527].connectionManager passiveListUpdate:vector ETV
vector 255 FloodSubNetwork.nodes[435].connectionManager passiveListUpdate:vector ETV
vector 256 FloodSubNetwork.nodes[797].connectionManager passiveListUpdate:vector ETV
vector 257 FloodSubNetwork.nodes[274].connectionManager passiveListUpdate:vector ETV
vector 258 FloodSubNetwork.nodes[468].connectionManager passiveListUpdate:vector ETV
vector 259 FloodSubNetwork.nodes[572].connectionManager passiveListUpdate:vector ETV
vector 260 FloodSubNetwork.nodes[484].connectionManager passiveListUpdate:vector ETV
vector 261 FloodSubNetwork.nodes[933].connectionManager passiveListUpdate:vector ETV
vector 262 FloodSubNetwork.nodes[638].connectionManager passiveListUpdate:vector ETV
vector 263 FloodSubNetwork.nodes[41].connectionManager passiveListUpdate:vector ETV
vector 264 FloodSubNetwork.nodes[175].connectionManager passiveListUpdate:vector ETV
vector 265 FloodSubNetwork.nodes[763].connectionManager passiveListUpdate:vector ETV
vector 266 FloodSubNetwork.nodes[64].connectionManager passiveListUpdate:vector ETV
vector 267 FloodSubNetwork.nodes[802].connectionManager passiveListUpdate:vector ETV
vector 268 FloodSubNetwork.nodes[127].connectionManager passiveListUpdate:vector ETV
vector 269 FloodSubNetwork.nodes[149].connectionManager passiveListUpdate:vector ETV
vector 270 FloodSubNetwork.nodes[472].connectionManager passiveListUpdate:vector ETV
vector 271 FloodSubNetwork.nodes[869].connectionManager passiveListUpdate:vector ETV
vector 272 FloodSubNetwork.nodes[546].connectionManager passiveListUpdate:vector ETV
vector 273 FloodSubNetwork.nodes[232].connectionManager passiveListUpdate:vector ETV
vector 274 FloodSubNetwork.nodes[822].connectionManager passiveListUpdate:vector ETV
vector 275 FloodSubNetwork.nodes[672].connectionManager passiveListUpdate:vector ETV
vector 276 FloodSubNetwork.nodes[823].connectionManager passiveListUpdate:vector ETV
vector 277 FloodSubNetwork.nodes[512].connectionManager passiveListUpdate:vector ETV
vector 278 FloodSubNetwork.nodes[329].connectionManager passiveListUpdate:vector ETV
vector 279 FloodSubNetwork.nodes[7].connectionManager passiveListUpdate:vector ETV
vector 280 FloodSubNetwork.nodes[4].connectionManager passiveListUpdate:vector ETV
vector 281 FloodSubNetwork.nodes[75].connectionManager passiveListUpdate:vector ETV
vector 282 FloodSubNetwork.nodes[132].connectionManager passiveListUpdate:vector ETV
vector 283 FloodSubNetwork.nodes[648].connectionManager passiveListUpdate:vector ETV
vector 284 FloodSubNetwork.nodes[930].connectionManager passiveListUpdate:vector ETV
vector 285 FloodSubNetwork.nodes[152].connectionManager passiveListUpdate:vector ETV
vector 286 FloodSubNetwork.nodes[862].connectionManager passiveListUpdate:vector ETV
vector 287 FloodSubNetwork.nodes[604].connectionManager passiveListUpdate:vector ETV
vector 288 FloodSubNetwork.nodes[533].connectionManager passiveListUpdate:vector ETV
vector 289 FloodSubNetwork.nodes[727].connectionManager passiveListUpdate:vector ETV
vector 290 FloodSubNetwork.nodes[668].connectionManager passiveListUpdate:vector ETV
vector 291 FloodSubNetwork.nodes[599].connectionManager passiveListUpdate:vector ETV
vector 292 FloodSubNetwork.nodes[816].connectionManager passiveListUpdate:vector ETV
vector 293 FloodSubNetwork.nodes[519].connectionManager passiveListUpdate:vector ETV
vector 294 FloodSubNetwork.nodes[325].connectionManager passiveListUpdate:vector ETV
vector 295 FloodSubNetwork.nodes[738].connectionManager passiveListUpdate:vector ETV
vector 296 FloodSubNetwork.nodes[338].connectionManager passiveListUpdate:vector ETV
vector 297 FloodSubNetwork.nodes[745].connectionManager passiveListUpdate:vector ETV
vector 298 FloodSubNetwork.nodes[739].connectionManager passiveListUpdate:vector ETV
vector 299 FloodSubNetwork.nodes[454].connectionManager passiveListUpdate:vector ETV
vector 300 FloodSubNetwork.nodes[694].connectionManager passiveListUpdate:vector ETV
vector 301 FloodSubNetwork.nodes[86].connectionManager passiveListUpdate:vector ETV
vector 302 FloodSubNetwork.nodes[204].connectionManager passiveListUpdate:vector ETV
vector 303 FloodSubNetwork.nodes[859].connectionManager passiveListUpdate:vector ETV
vector 304 FloodSubNetwork.nodes[580].connectionManager passiveListUpdate:vector ETV
vector 305 FloodSubNetwork.nodes[680].connectionManager passiveListUpdate:vector ETV
vector 306 FloodSubNetwork.nodes[979].connectionManager passiveListUpdate:vector ETV
vector 307 FloodSubNetwork.nodes[303].connectionManager passiveListUpdate:vector ETV
vector 308 FloodSubNetwork.nodes[55].connectionManager passiveListUpdate:vector ETV
vector 309 FloodSubNetwork.nodes[894].connectionManager passiveListUpdate:vector ETV
vector 310 FloodSubNetwork.nodes[416].connectionManager passiveListUpdate:vector ETV
vector 311 FloodSubNetwork.nodes[148].connectionManager passiveListUpdate:vector ETV
vector 312 FloodSubNetwork.nodes[234].connectionManager passiveListUpdate:vector ETV
vector 313 FloodSubNetwork.nodes[653].connectionManager passiveListUpdate:vector ETV
vector 314 FloodSubNetwork.nodes[172].connectionManager passiveListUpdate:vector ETV
vector 315 FloodSubNetwork.nodes[779].connectionManager passiveListUpdate:vector ETV
vector 316 FloodSubNetwork.nodes[73].connectionManager passiveListUpdate:vector ETV
vector 317 FloodSubNetwork.nodes[613].connectionManager passiveListUpdate:vector ETV
vector 318 FloodSubNetwork.nodes[790].connectionManager passiveListUpdate:vector ETV
vector 319 FloodSubNetwork.nodes[449].connectionManager passiveListUpdate:vector ETV
vector 320 FloodSubNetwork.nodes[8].connectionManager passiveListUpdate:vector ETV
vector 321 FloodSubNetwork.nodes[579].connectionManager passiveListUpdate:vector ETV
vector 322 FloodSubNetwork.nodes[997].connectionManager passiveListUpdate:vector ETV
vector 323 FloodSubNetwork.nodes[674].connectionManager passiveListUpdate:vector ETV
vector 324 FloodSubNetwork.nodes[575].connectionManager passiveListUpdate:vector ETV
vector 325 FloodSubNetwork.nodes[906].connectionManager passiveListUpdate:vector ETV
vector 326 FloodSubNetwork.nodes[177].connectionManager passiveListUpdate:vector ETV
vector 327 FloodSubNetwork.nodes[46].connectionManager passiveListUpdate:vector ETV
vector 328 FloodSubNetwork.nodes[632].connectionManager passiveListUpdate:vector ETV
vector 329 FloodSubNetwork.nodes[487].connectionManager passiveListUpdate:vector ETV
vector 330 FloodSubNetwork.nodes[144].connectionManager passiveListUpdate:vector ETV
vector 331 FloodSubNetwork.nodes[549].connectionManager passiveListUpdate:vector ETV
vector 332 FloodSubNetwork.nodes[443].connectionManager passiveListUpdate:vector ETV
vector 333 FloodSubNetwork.nodes[857].connectionManager passiveListUpdate:vector ETV
vector 334 FloodSubNetwork.nodes[825].connectionManager passiveListUpdate:vector ETV
vector 335 FloodSubNetwork.nodes[28].connectionManager passiveListUpdate:vector ETV
vector 336 FloodSubNetwork.nodes[388].connectionManager passiveListUpdate:vector ETV
vector 337 FloodSubNetwork.nodes[20].connectionManager passiveListUpdate:vector ETV
vector 338 FloodSubNetwork.nodes[140].connectionManager passiveListUpdate:vector ETV
vector 339 FloodSubNetwork.nodes[370].connectionManager passiveListUpdate:vector ETV
vector 340 FloodSubNetwork.nodes[240].connectionManager passiveListUpdate:vector ETV
vector 341 FloodSubNetwork.nodes[365].connectionManager passiveListUpdate:vector ETV
vector 342 FloodSubNetwork.nodes[434].connectionManager passiveListUpdate:vector ETV
vector 343 FloodSubNetwork.nodes[48].connectionManager passiveListUpdate:vector ETV
vector 344 FloodSubNetwork.nodes[506].connectionManager passiveListUpdate:vector ETV
vector 345 FloodSubNetwork.nodes[231].connectionManager passiveListUpdate:vector ETV
vector 346 FloodSubNetwork.nodes[166].connectionManager passiveListUpdate:vector ETV
vector 347 FloodSubNetwork.nodes[119].connectionManager passiveListUpdate:vector ETV
vector 348 FloodSubNetwork.nodes[724].connectionManager passiveListUpdate:vector ETV
vector 349 FloodSubNetwork.nodes[911].connectionManager passiveListUpdate:vector ETV
vector 350 FloodSubNetwork.nodes[474].connectionManager passiveListUpdate:vector ETV
vector 351 FloodSubNetwork.nodes[363].connectionManager passiveListUpdate:vector ETV
vector 352 FloodSubNetwork.nodes[314].connectionManager passiveListUpdate:vector ETV
vector 353 FloodSubNetwork.nodes[382].connectionManager passiveListUpdate:vector ETV
vector 354 FloodSubNetwork.nodes[520].connectionManager passiveListUpdate:vector ETV
vector 355 FloodSubNetwork.nodes[371].connectionManager passiveListUpdate:vector ETV
vector 356 FloodSubNetwork.nodes[942].connectionManager passiveListUpdate:vector ETV
vector 357 FloodSubNetwork.nodes[523].connectionManager passiveListUpdate:vector ETV
vector 358 FloodSubNetwork.nodes[568].connectionManager passiveListUpdate:vector ETV
vector 359 FloodSubNetwork.nodes[834].connectionManager passiveListUpdate:vector ETV
vector 360 FloodSubNetwork.nodes[44].connectionManager passiveListUpdate:vector ETV
vector 361 FloodSubNetwork.nodes[464].connectionManager passiveListUpdate:vector ETV
vector 362 FloodSubNetwork.nodes[771].connectionManager passiveListUpdate:vector ETV
vector 363 FloodSubNetwork.nodes[233].connectionManager passiveListUpdate:vector ETV
vector 364 FloodSubNetwork.nodes[471].connectionManager passiveListUpdate:vector ETV
vector 365 FloodSubNetwork.nodes[846].connectionManager passiveListUpdate:vector ETV
vector 366 FloodSubNetwork.nodes[399].connectionManager passiveListUpdate:vector ETV
vector 367 FloodSubNetwork.nodes[865].connectionManager passiveListUpdate:vector ETV
vector 368 FloodSubNetwork.nodes[447].connectionManager passiveListUpdate:vector ETV
vector 369 FloodSubNetwork.nodes[958].connectionManager passiveListUpdate:vector ETV
vector 370 FloodSubNetwork.nodes[401].connectionManager passiveListUpdate:vector ETV
vector 371 FloodSubNetwork.nodes[72].connectionManager passiveListUpdate:vector ETV
vector 372 FloodSubNetwork.nodes[884].connectionManager passiveListUpdate:vector ETV
vector 373 FloodSubNetwork.nodes[30].connectionManager passiveListUpdate:vector ETV
vector 374 FloodSubNetwork.nodes[587].connectionManager passiveListUpdate:vector ETV
vector 375 FloodSubNetwork.nodes[821].connectionManager passiveListUpdate:vector ETV
vector 376 FloodSubNetwork.nodes[408].connectionManager passiveListUpdate:vector ETV
vector 377 FloodSubNetwork.nodes[577].connectionManager passiveListUpdate:vector ETV
vector 378 FloodSubNetwork.nodes[529].connectionManager passiveListUpdate:vector ETV
vector 379 FloodSubNetwork.nodes[350].connectionManager passiveListUpdate:vector ETV
vector 380 FloodSubNetwork.nodes[995].connectionManager passiveListUpdate:vector ETV
vector 381 FloodSubNetwork.nodes[147].connectionManager passiveListUpdate:vector ETV
vector 382 FloodSubNetwork.nodes[415].connectionManager passiveListUpdate:vector ETV
vector 383 FloodSubNetwork.nodes[400].connectionManager passiveListUpdate:vector ETV
vector 384 FloodSubNetwork.nodes[971].connectionManager passiveListUpdate:vector ETV
vector 385 FloodSubNetwork.nodes[315].connectionManager passiveListUpdate:vector ETV
vector 386 FloodSubNetwork.nodes[65].connectionManager passiveListUpdate:vector ETV
vector 387 FloodSubNetwork.nodes[932].connectionManager passiveListUpdate:vector ETV
vector 388 FloodSubNetwork.nodes[629].connectionManager passiveListUpdate:vector ETV
vector 389 FloodSubNetwork.nodes[171].connectionManager passiveListUpdate:vector ETV
vector 390 FloodSubNetwork.nodes[353].connectionManager passiveListUpdate:vector ETV
vector 391 FloodSubNetwork.nodes[495].connectionManager passiveListUpdate:vector ETV
vector 392 FloodSubNetwork.nodes[563].connectionManager passiveListUpdate:vector ETV
vector 393 FloodSubNetwork.nodes[189].connectionManager passiveListUpdate:vector ETV
vector 394 FloodSubNetwork.nodes[259].connectionManager passiveListUpdate:vector ETV
vector 395 FloodSubNetwork.nodes[757].connectionManager passiveListUpdate:vector ETV
vector 396 FloodSubNetwork.nodes[989].connectionManager passiveListUpdate:vector ETV
vector 397 FloodSubNetwork.nodes[397].connectionManager passiveListUpdate:vector ETV
vector 398 FloodSubNetwork.nodes[369].connectionManager passiveListUpdate:vector ETV
vector 399 FloodSubNetwork.nodes[411].connectionManager passiveListUpdate:vector ETV
vector 400 FloodSubNetwork.nodes[588].connectionManager passiveListUpdate:vector ETV
vector 401 FloodSubNetwork.nodes[615].connectionManager passiveListUpdate:vector ETV
vector 402 FloodSubNetwork.nodes[976].connectionManager passiveListUpdate:vector ETV
vector 403 FloodSubNetwork.nodes[961].connectionManager passiveListUpdate:vector ETV
vector 404 FloodSubNetwork.nodes[332].connectionManager passiveListUpdate:vector ETV
vector 405 FloodSubNetwork.nodes[898].connectionManager passiveListUpdate:vector ETV
vector 406 FloodSubNetwork.nodes[616].connectionManager passiveListUpdate:vector ETV
vector 407 FloodSubNetwork.nodes[154].connectionManager passiveListUpdate:vector ETV
vector 408 FloodSubNetwork.nodes[331].connectionManager passiveListUpdate:vector ETV
vector 409 FloodSubNetwork.nodes[27].connectionManager passiveListUpdate:vector ETV
vector 410 FloodSubNetwork.nodes[360].connectionManager passiveListUpdate:vector ETV
vector 411 FloodSubNetwork.nodes[540].connectionManager passiveListUpdate:vector ETV
vector 412 FloodSubNetwork.nodes[71].connectionManager passiveListUpdate:vector ETV
vector 413 FloodSubNetwork.nodes[163].connectionManager passiveListUpdate:vector ETV
vector 414 FloodSubNetwork.nodes[801].connectionManager passiveListUpdate:vector ETV
vector 415 FloodSubNetwork.nodes[219].connectionManager passiveListUpdate:vector ETV
vector 416 FloodSubNetwork.nodes[641].connectionManager passiveListUpdate:vector ETV
vector 417 FloodSubNetwork.nodes[200].connectionManager passiveListUpdate:vector ETV
vector 418 FloodSubNetwork.nodes[676].connectionManager passiveListUpdate:vector ETV
vector 419 FloodSubNetwork.nodes[323].connectionManager passiveListUpdate:vector ETV
vector 420 FloodSubNetwork.nodes[972].connectionManager passiveListUpdate:vector ETV
vector 421 FloodSubNetwork.nodes[499].connectionManager passiveListUpdate:vector ETV
vector 422 FloodSubNetwork.nodes[419].connectionManager passiveListUpdate:vector ETV
vector 423 FloodSubNetwork.nodes[687].connectionManager passiveListUpdate:vector ETV
vector 424 FloodSubNetwork.nodes[442].connectionManager passiveListUpdate:vector ETV
vector 425 FloodSubNetwork.nodes[552].connectionManager passiveListUpdate:vector ETV
vector 426 FloodSubNetwork.nodes[354].connectionManager passiveListUpdate:vector ETV
vector 427 FloodSubNetwork.nodes[239].connectionManager passiveListUpdate:vector ETV
vector 428 FloodSubNetwork.nodes[458].connectionManager passiveListUpdate:vector ETV
vector 429 FloodSubNetwork.nodes[9].connectionManager passiveListUpdate:vector ETV
vector 430 FloodSubNetwork.nodes[109].connectionManager passiveListUpdate:vector ETV
vector 431 FloodSubNetwork.nodes[597].connectionManager passiveListUpdate:vector ETV
vector 432 FloodSubNetwork.nodes[17].connectionManager passiveListUpdate:vector ETV
vector 433 FloodSubNetwork.nodes[829].connectionManager passiveListUpdate:vector ETV
vector 434 FloodSubNetwork.nodes[229].connectionManager passiveListUpdate:vector ETV
vector 435 FloodSubNetwork.nodes[6].connectionManager passiveListUpdate:vector ETV
vector 436 FloodSubNetwork.nodes[14].connectionManager passiveListUpdate:vector ETV
vector 437 FloodSubNetwork.nodes[557].connectionManager passiveListUpdate:vector ETV
vector 438 FloodSubNetwork.nodes[104].connectionManager passiveListUpdate:vector ETV
vector 439 FloodSubNetwork.nodes[845].connectionManager passiveListUpdate:vector ETV
vector 440 FloodSubNetwork.nodes[420].connectionManager passiveListUpdate:vector ETV
vector 441 FloodSubNetwork.nodes[619].connectionManager passiveListUpdate:vector ETV
vector 442 FloodSubNetwork.nodes[872].connectionManager passiveListUpdate:vector ETV
vector 443 FloodSubNetwork.nodes[703].connectionManager passiveListUpdate:vector ETV
vector 444 FloodSubNetwork.nodes[168].connectionManager passiveListUpdate:vector ETV
vector 445 FloodSubNetwork.nodes[603].connectionManager passiveListUpdate:vector ETV
vector 446 FloodSubNetwork.nodes[105].connectionManager passiveListUpdate:vector ETV
vector 447 FloodSubNetwork.nodes[318].connectionManager passiveListUpdate:vector ETV
vector 448 FloodSubNetwork.nodes[800].connectionManager passiveListUpdate:vector ETV
vector 449 FloodSubNetwork.nodes[276].connectionManager passiveListUpdate:vector ETV
vector 450 FloodSubNetwork.nodes[282].connectionManager passiveListUpdate:vector ETV
vector 451 FloodSubNetwork.nodes[714].connectionManager passiveListUpdate:vector ETV
vector 452 FloodSubNetwork.nodes[424].connectionManager passiveListUpdate:vector ETV
vector 453 FloodSubNetwork.nodes[592].connectionManager passiveListUpdate:vector ETV
vector 454 FloodSubNetwork.nodes[705].connectionManager passiveListUpdate:vector ETV
vector 455 FloodSubNetwork.nodes[3].connectionManager passiveListUpdate:vector ETV
vector 456 FloodSubNetwork.nodes[770].connectionManager passiveListUpdate:vector ETV
vector 457 FloodSubNetwork.nodes[254].connectionManager passiveListUpdate:vector ETV
vector 458 FloodSubNetwork.nodes[775].connectionManager passiveListUpdate:vector ETV
vector 459 FloodSubNetwork.nodes[673].connectionManager passiveListUpdate:vector ETV
vector 460 FloodSubNetwork.nodes[917].connectionManager passiveListUpdate:vector ETV
vector 461 FloodSubNetwork.nodes[711].connectionManager passiveListUpdate:vector ETV
vector 462 FloodSubNetwork.nodes[923].connectionManager passiveListUpdate:vector ETV
vector 463 FloodSubNetwork.nodes[386].connectionManager passiveListUpdate:vector ETV
vector 464 FloodSubNetwork.nodes[590].connectionManager passiveListUpdate:vector ETV
vector 465 FloodSubNetwork.nodes[918].connectionManager passiveListUpdate:vector ETV
vector 466 FloodSubNetwork.nodes[310].connectionManager passiveListUpdate:vector ETV
vector 467 FloodSubNetwork.nodes[393].connectionManager passiveListUpdate:vector ETV
vector 468 FloodSubNetwork.nodes[913].connectionManager passiveListUpdate:vector ETV
vector 469 FloodSubNetwork.nodes[786].connectionManager passiveListUpdate:vector ETV
vector 470 FloodSubNetwork.nodes[143].connectionManager passiveListUpdate:vector ETV
vector 471 FloodSubNetwork.nodes[261].connectionManager passiveListUpdate:vector ETV
vector 472 FloodSubNetwork.nodes[623].connectionManager passiveListUpdate:vector ETV
vector 473 FloodSubNetwork.nodes[390].connectionManager passiveListUpdate:vector ETV
vector 474 FloodSubNetwork.nodes[339].connectionManager passiveListUpdate:vector ETV
vector 475 FloodSubNetwork.nodes[450].connectionManager passiveListUpdate:vector ETV
vector 476 FloodSubNetwork.nodes[934].connectionManager passiveListUpdate:vector ETV
vector 477 FloodSubNetwork.nodes[725].connectionManager passiveListUpdate:vector ETV
vector 478 FloodSubNetwork.nodes[810].connectionManager passiveListUpdate:vector ETV
vector 479 FloodSubNetwork.nodes[120].connectionManager passiveListUpdate:vector ETV
vector 480 FloodSubNetwork.nodes[985].connectionManager passiveListUpdate:vector ETV
vector 481 FloodSubNetwork.nodes[266].connectionManager passiveListUpdate:vector ETV
vector 482 FloodSubNetwork.nodes[343].connectionManager passiveListUpdate:vector ETV
vector 483 FloodSubNetwork.nodes[959].connectionManager passiveListUpdate:vector ETV
vector 484 FloodSubNetwork.nodes[624].connectionManager passiveListUpdate:vector ETV
vector 485 FloodSubNetwork.nodes[666].connectionManager passiveListUpdate:vector ETV
vector 486 FloodSubNetwork.nodes[446].connectionManager passiveListUpdate:vector ETV
vector 487 FloodSubNetwork.nodes[407].connectionManager passiveListUpdate:vector ETV
vector 488 FloodSubNetwork.nodes[688].connectionManager passiveListUpdate:vector ETV
vector 489 FloodSubNetwork.nodes[295].connectionManager passiveListUpdate:vector ETV
vector 490 FloodSubNetwork.nodes[578].connectionManager passiveListUpdate:vector ETV
vector 491 FloodSubNetwork.nodes[476].connectionManager passiveListUpdate:vector ETV
vector 492 FloodSubNetwork.nodes[57].connectionManager passiveListUpdate:vector ETV
vector 493 FloodSubNetwork.nodes[940].connectionManager passiveListUpdate:vector ETV
vector 494 FloodSubNetwork.nodes[1].connectionManager passiveListUpdate:vector ETV
vector 495 FloodSubNetwork.nodes[0].connectionManager passiveListUpdate:vector ETV
vector 496 FloodSubNetwork.nodes[69].connectionManager passiveListUpdate:vector ETV
vector 497 FloodSubNetwork.nodes[938].connectionManager passiveListUpdate:vector ETV
vector 498 FloodSubNetwork.nodes[789].connectionManager passiveListUpdate:vector ETV
vector 499 FloodSubNetwork.nodes[221].connectionManager passiveListUpdate:vector ETV
vector 500 FloodSubNetwork.nodes[124].connectionManager passiveListUpdate:vector ETV
vector 501 FloodSubNetwork.nodes[908].connectionManager passiveListUpdate:vector ETV
vector 502 FloodSubNetwork.nodes[242].connectionManager passiveListUpdate:vector ETV
vector 503 FloodSubNetwork.nodes[151].connectionManager passiveListUpdate:vector ETV
vector 504 FloodSubNetwork.nodes[824].connectionManager passiveListUpdate:vector ETV
vector 505 FloodSubNetwork.nodes[707].connectionManager passiveListUpdate:vector ETV
vector 506 FloodSubNetwork.nodes[883].connectionManager passiveListUpdate:vector ETV
vector 507 FloodSubNetwork.nodes[589].connectionManager passiveListUpdate:vector ETV
vector 508 FloodSubNetwork.nodes[225].connectionManager passiveListUpdate:vector ETV
vector 509 FloodSubNetwork.nodes[500].connectionManager passiveListUpdate:vector ETV
vector 510 FloodSubNetwork.nodes[130].connectionManager passiveListUpdate:vector ETV
vector 511 FloodSubNetwork.nodes[622].connectionManager passiveListUpdate:vector ETV
vector 512 FloodSubNetwork.nodes[351].connectionManager passiveListUpdate:vector ETV
vector 513 FloodSubNetwork.nodes[417].connectionManager passiveListUpdate:vector ETV
vector 514 FloodSubNetwork.nodes[227].connectionManager passiveListUpdate:vector ETV
vector 515 FloodSubNetwork.nodes[121].connectionManager passiveListUpdate:vector ETV
vector 516 FloodSubNetwork.nodes[717].connectionManager passiveListUpdate:vector ETV
vector 517 FloodSubNetwork.nodes[366].connectionManager passiveListUpdate:vector ETV
vector 518 FloodSubNetwork.nodes[67].connectionManager passiveListUpdate:vector ETV
vector 519 FloodSubNetwork.nodes[964].connectionManager passiveListUpdate:vector ETV
vector 520 FloodSubNetwork.nodes[439].connectionManager passiveListUpdate:vector ETV
vector 521 FloodSubNetwork.nodes[957].connectionManager passiveListUpdate:vector ETV
vector 522 FloodSubNetwork.nodes[361].connectionManager passiveListUpdate:vector ETV
vector 523 FloodSubNetwork.nodes[475].connectionManager passiveListUpdate:vector ETV
vector 524 FloodSubNetwork.nodes[729].connectionManager passiveListUpdate:vector ETV
vector 525 FloodSubNetwork.nodes[812].connectionManager passiveListUpdate:vector ETV
vector 526 FloodSubNetwork.nodes[698].connectionManager passiveListUpdate:vector ETV
vector 527 FloodSubNetwork.nodes[614].connectionManager passiveListUpdate:vector ETV
vector 528 FloodSubNetwork.nodes[686].connectionManager passiveListUpdate:vector ETV
vector 529 FloodSubNetwork.nodes[831].connectionManager passiveListUpdate:vector ETV
vector 530 FloodSubNetwork.nodes[406].connectionManager passiveListUpdate:vector ETV
vector 531 FloodSubNetwork.nodes[866].connectionManager passiveListUpdate:vector ETV
vector 532 FloodSubNetwork.nodes[854].connectionManager passiveListUpdate:vector ETV
vector 533 FloodSubNetwork.nodes[796].connectionManager passiveListUpdate:vector ETV
vector 534 FloodSubNetwork.nodes[915].connectionManager passiveListUpdate:vector ETV
vector 535 FloodSubNetwork.nodes[402].connectionManager passiveListUpdate:vector ETV
vector 536 FloodSubNetwork.nodes[637].connectionManager passiveListUpdate:vector ETV
vector 537 FloodSubNetwork.nodes[974].connectionManager passiveListUpdate:vector ETV
vector 538 FloodSubNetwork.nodes[202].connectionManager passiveListUpdate:vector ETV
vector 539 FloodSubNetwork.nodes[744].connectionManager passiveListUpdate:vector ETV
vector 540 FloodSubNetwork.nodes[35].connectionManager passiveListUpdate:vector ETV
vector 541 FloodSubNetwork.nodes[532].connectionManager passiveListUpdate:vector ETV
vector 542 FloodSubNetwork.nodes[820].connectionManager passiveListUpdate:vector ETV
vector 543 FloodSubNetwork.nodes[664].connectionManager passiveListUpdate:vector ETV
vector 544 FloodSubNetwork.nodes[327].connectionManager passiveListUpdate:vector ETV
vector 545 FloodSubNetwork.nodes[478].connectionManager passiveListUpdate:vector ETV
vector 546 FloodSubNetwork.nodes[78].connectionManager passiveListUpdate:vector ETV
vector 547 FloodSubNetwork.nodes[418].connectionManager passiveListUpdate:vector ETV
vector 548 FloodSubNetwork.nodes[183].connectionManager passiveListUpdate:vector ETV
vector 549 FloodSubNetwork.nodes[479].connectionManager passiveListUpdate:vector ETV
vector 550 FloodSubNetwork.nodes[180].connectionManager passiveListUpdate:vector ETV
vector 551 FloodSubNetwork.nodes[856].connectionManager passiveListUpdate:vector ETV
vector 552 FloodSubNetwork.nodes[117].connectionManager passiveListUpdate:vector ETV
vector 553 FloodSubNetwork.nodes[881].connectionManager passiveListUpdate:vector ETV
vector 554 FloodSubNetwork.nodes[195].connectionManager passiveListUpdate:vector ETV
vector 555 FloodSubNetwork.nodes[374].connectionManager passiveListUpdate:vector ETV
vector 556 FloodSubNetwork.nodes[636].connectionManager passiveListUpdate:vector ETV
vector 557 FloodSubNetwork.nodes[18].connectionManager passiveListUpdate:vector ETV
vector 558 FloodSubNetwork.nodes[385].connectionManager passiveListUpdate:vector ETV
vector 559 FloodSubNetwork.nodes[430].connectionManager passiveListUpdate:vector ETV
vector 560 FloodSubNetwork.nodes[973].connectionManager passiveListUpdate:vector ETV
vector 561 FloodSubNetwork.nodes[489].connectionManager passiveListUpdate:vector ETV
vector 562 FloodSubNetwork.nodes[630].connectionManager passiveListUpdate:vector ETV
vector 563 FloodSubNetwork.nodes[875].connectionManager passiveListUpdate:vector ETV
vector 564 FloodSubNetwork.nodes[352].connectionManager passiveListUpdate:vector ETV
vector 565 FloodSubNetwork.nodes[851].connectionManager passiveListUpdate:vector ETV
vector 566 FloodSubNetwork.nodes[51].connectionManager passiveListUpdate:vector ETV
vector 567 FloodSubNetwork.nodes[357].connectionManager passiveListUpdate:vector ETV
vector 568 FloodSubNetwork.nodes[566].connectionManager passiveListUpdate:vector ETV
vector 569 FloodSubNetwork.nodes[255].connectionManager passiveListUpdate:vector ETV
vector 570 FloodSubNetwork.nodes[990].connectionManager passiveListUpdate:vector ETV
vector 571 FloodSubNetwork.nodes[346].connectionManager passiveListUpdate:vector ETV
vector 572 FloodSubNetwork.nodes[410].connectionManager passiveListUpdate:vector ETV
vector 573 FloodSubNetwork.nodes[983].connectionManager passiveListUpdate:vector ETV
vector 574 FloodSubNetwork.nodes[15].connectionManager passiveListUpdate:vector ETV
vector 575 FloodSubNetwork.nodes[404].connectionManager passiveListUpdate:vector ETV
vector 576 FloodSubNetwork.nodes[888].connectionManager passiveListUpdate:vector ETV
vector 577 FloodSubNetwork.nodes[815].connectionManager passiveListUpdate:vector ETV
vector 578 FloodSubNetwork.nodes[19].connectionManager passiveListUpdate:vector ETV
vector 579 FloodSubNetwork.nodes[403].connectionManager passiveListUpdate:vector ETV
vector 580 FloodSubNetwork.nodes[301].connectionManager passiveListUpdate:vector ETV
vector 581 FloodSubNetwork.nodes[644].connectionManager passiveListUpdate:vector ETV
vector 582 FloodSubNetwork.nodes[679].connectionManager passiveListUpdate:vector ETV
vector 583 FloodSubNetwork.nodes[162].connectionManager passiveListUpdate:vector ETV
vector 584 FloodSubNetwork.nodes[752].connectionManager passiveListUpdate:vector ETV
vector 585 FloodSubNetwork.nodes[481].connectionManager passiveListUpdate:vector ETV
vector 586 FloodSubNetwork.nodes[306].connectionManager passiveListUpdate:vector ETV
vector 587 FloodSubNetwork.nodes[891].connectionManager passiveListUpdate:vector ETV
vector 588 FloodSubNetwork.nodes[291].connectionManager passiveListUpdate:vector ETV
vector 589 FloodSubNetwork.nodes[861].connectionManager passiveListUpdate:vector ETV
vector 590 FloodSubNetwork.nodes[837].connectionManager passiveListUpdate:vector ETV
vector 591 FloodSubNetwork.nodes[702].connectionManager passiveListUpdate:vector ETV
vector 592 FloodSubNetwork.nodes[941].connectionManager passiveListUpdate:vector ETV
vector 593 FloodSubNetwork.nodes[373].connectionManager passiveListUpdate:vector ETV
vector 594 FloodSubNetwork.nodes[871].connectionManager passiveListUpdate:vector ETV
vector 595 FloodSubNetwork.nodes[262].connectionManager passiveListUpdate:vector ETV
vector 596 FloodSubNetwork.nodes[799].connectionManager passiveListUpdate:vector ETV
vector 597 FloodSubNetwork.nodes[952].connectionManager passiveListUpdate:vector ETV
vector 598 FloodSubNetwork.nodes[131].connectionManager passiveListUpdate:vector ETV
vector 599 FloodSubNetwork.nodes[167].connectionManager passiveListUpdate:vector ETV
vector 600 FloodSubNetwork.nodes[493].connectionManager passiveListUpdate:vector ETV
vector 601 FloodSubNetwork.nodes[146].connectionManager passiveListUpdate:vector ETV
vector 602 FloodSubNetwork.nodes[236].connectionManager passiveListUpdate:vector ETV
vector 603 FloodSubNetwork.nodes[308].connectionManager passiveListUpdate:vector ETV
vector 604 FloodSubNetwork.nodes[850].connectionManager passiveListUpdate:vector ETV
vector 605 FloodSubNetwork.nodes[780].connectionManager passiveListUpdate:vector ETV
vector 606 FloodSubNetwork.nodes[728].connectionManager passiveListUpdate:vector ETV
vector 607 FloodSubNetwork.nodes[669].connectionManager passiveListUpdate:vector ETV
vector 608 FloodSubNetwork.nodes[929].connectionManager passiveListUpdate:vector ETV
vector 609 FloodSubNetwork.nodes[683].connectionManager passiveListUpdate:vector ETV
vector 610 FloodSubNetwork.nodes[215].connectionManager passiveListUpdate:vector ETV
vector 611 FloodSubNetwork.nodes[251].connectionManager passiveListUpdate:vector ETV
vector 612 FloodSubNetwork.nodes[793].connectionManager passiveListUpdate:vector ETV
vector 613 FloodSubNetwork.nodes[342].connectionManager passiveListUpdate:vector ETV
vector 614 FloodSubNetwork.nodes[701].connectionManager passiveListUpdate:vector ETV
vector 615 FloodSubNetwork.nodes[841].connectionManager passiveListUpdate:vector ETV
vector 616 FloodSubNetwork.nodes[13].connectionManager passiveListUpdate:vector ETV
vector 617 FloodSubNetwork.nodes[517].connectionManager passiveListUpdate:vector ETV
vector 618 FloodSubNetwork.nodes[205].connectionManager passiveListUpdate:vector ETV
vector 619 FloodSubNetwork.nodes[486].connectionManager passiveListUpdate:vector ETV
vector 620 FloodSubNetwork.nodes[349].connectionManager passiveListUpdate:vector ETV
vector 621 FloodSubNetwork.nodes[874].connectionManager passiveListUpdate:vector ETV
vector 622 FloodSubNetwork.nodes[708].connectionManager passiveListUpdate:vector ETV
vector 623 FloodSubNetwork.nodes[380].connectionManager passiveListUpdate:vector ETV
vector 624 FloodSubNetwork.nodes[761].connectionManager passiveListUpdate:vector ETV
vector 625 FloodSubNetwork.nodes[76].connectionManager passiveListUpdate:vector ETV
vector 626 FloodSubNetwork.nodes[341].connectionManager passiveListUpdate:vector ETV
vector 627 FloodSubNetwork.nodes[460].connectionManager passiveListUpdate:vector ETV
vector 628 FloodSubNetwork.nodes[267].connectionManager passiveListUpdate:vector ETV
vector 629 FloodSubNetwork.nodes[421].connectionManager passiveListUpdate:vector ETV
vector 630 FloodSubNetwork.nodes[662].connectionManager passiveListUpdate:vector ETV
vector 631 FloodSubNetwork.nodes[477].connectionManager passiveListUpdate:vector ETV
vector 632 FloodSubNetwork.nodes[583].connectionManager passiveListUpdate:vector ETV
vector 633 FloodSubNetwork.nodes[158].connectionManager passiveListUpdate:vector ETV
vector 634 FloodSubNetwork.nodes[66].connectionManager passiveListUpdate:vector ETV
vector 635 FloodSubNetwork.nodes[265].connectionManager passiveListUpdate:vector ETV
vector 636 FloodSubNetwork.nodes[136].connectionManager passiveListUpdate:vector ETV
vector 637 FloodSubNetwork.nodes[441].connectionManager passiveListUpdate:vector ETV
vector 638 FloodSubNetwork.nodes[531].connectionManager passiveListUpdate:vector ETV
vector 639 FloodSubNetwork.nodes[118].connectionManager passiveListUpdate:vector ETV
vector 640 FloodSubNetwork.nodes[63].connectionManager passiveListUpdate:vector ETV
vector 641 FloodSubNetwork.nodes[794].connectionManager passiveListUpdate:vector ETV
vector 642 FloodSubNetwork.nodes[137].connectionManager passiveListUpdate:vector ETV
vector 643 FloodSubNetwork.nodes[281].connectionManager passiveListUpdate:vector ETV
vector 644 FloodSubNetwork.nodes[925].connectionManager passiveListUpdate:vector ETV
vector 645 FloodSubNetwork.nodes[835].connectionManager passiveListUpdate:vector ETV
vector 646 FloodSubNetwork.nodes[710].connectionManager passiveListUpdate:vector ETV
vector 647 FloodSubNetwork.nodes[494].connectionManager passiveListUpdate:vector ETV
vector 648 FloodSubNetwork.nodes[311].connectionManager passiveListUpdate:vector ETV
vector 649 FloodSubNetwork.nodes[222].connectionManager passiveListUpdate:vector ETV
vector 650 FloodSubNetwork.nodes[896].connectionManager passiveListUpdate:vector ETV
vector 651 FloodSubNetwork.nodes[516].connectionManager passiveListUpdate:vector ETV
vector 652 FloodSubNetwork.nodes[185].connectionManager passiveListUpdate:vector ETV
vector 653 FloodSubNetwork.nodes[241].connectionManager passiveListUpdate:vector ETV
vector 654 FloodSubNetwork.nodes[986].connectionManager passiveListUpdate:vector ETV
vector 655 FloodSubNetwork.nodes[433].connectionManager passiveListUpdate:vector ETV
vector 656 FloodSubNetwork.nodes[160].connectionManager passiveListUpdate:vector ETV
vector 657 FloodSubNetwork.nodes[743].connectionManager passiveListUpdate:vector ETV
vector 658 FloodSubNetwork.nodes[438].connectionManager passiveListUpdate:vector ETV
vector 659 FloodSubNetwork.nodes[813].connectionManager passiveListUpdate:vector ETV
vector 660 FloodSubNetwork.nodes[256].connectionManager passiveListUpdate:vector ETV
vector 661 FloodSubNetwork.nodes[685].connectionManager passiveListUpdate:vector ETV
vector 662 FloodSubNetwork.nodes[176].connectionManager passiveListUpdate:vector ETV
vector 663 FloodSubNetwork.nodes[751].connectionManager passiveListUpdate:vector ETV
vector 664 FloodSubNetwork.nodes[723].connectionManager passiveListUpdate:vector ETV
vector 665 FloodSubNetwork.nodes[994].connectionManager passiveListUpdate:vector ETV
vector 666 FloodSubNetwork.nodes[645].connectionManager passiveListUpdate:vector ETV
vector 667 FloodSubNetwork.nodes[83].connectionManager passiveListUpdate:vector ETV
vector 668 FloodSubNetwork.nodes[665].connectionManager passiveListUpdate:vector ETV
vector 669 FloodSubNetwork.nodes[998].connectionManager passiveListUpdate:vector ETV
vector 670 FloodSubNetwork.nodes[181].connectionManager passiveListUpdate:vector ETV
vector 671 FloodSubNetwork.nodes[110].connectionManager passiveListUpdate:vector ETV
vector 672 FloodSubNetwork.nodes[220].connectionManager passiveListUpdate:vector ETV
vector 673 FloodSubNetwork.nodes[867].connectionManager passiveListUpdate:vector ETV
vector 674 FloodSubNetwork.nodes[742].connectionManager passiveListUpdate:vector ETV
vector 675 FloodSubNetwork.nodes[25].connectionManager passiveListUpdate:vector ETV
vector 676 FloodSubNetwork.nodes[840].connectionManager passiveListUpdate:vector ETV
vector 677 FloodSubNetwork.nodes[784].connectionManager passiveListUpdate:vector ETV
vector 678 FloodSubNetwork.nodes[82].connectionManager passiveListUpdate:vector ETV
vector 679 FloodSubNetwork.nodes[34].connectionManager passiveListUpdate:vector ETV
vector 680 FloodSubNetwork.nodes[268].connectionManager passiveListUpdate:vector ETV
vector 681 FloodSubNetwork.nodes[492].connectionManager passiveListUpdate:vector ETV
vector 682 FloodSubNetwork.nodes[838].connectionManager passiveListUpdate:vector ETV
vector 683 FloodSubNetwork.nodes[290].connectionManager passiveListUpdate:vector ETV
vector 684 FloodSubNetwork.nodes[186].connectionManager passiveListUpdate:vector ETV
vector 685 FloodSubNetwork.nodes[716].connectionManager passiveListUpdate:vector ETV
vector 686 FloodSubNetwork.nodes[581].connectionManager passiveListUpdate:vector ETV
vector 687 FloodSubNetwork.nodes[87].connectionManager passiveListUpdate:vector ETV
vector 688 FloodSubNetwork.nodes[122].connectionManager passiveListUpdate:vector ETV
vector 689 FloodSubNetwork.nodes[451].connectionManager passiveListUpdate:vector ETV
vector 690 FloodSubNetwork.nodes[252].connectionManager passiveListUpdate:vector ETV
vector 691 FloodSubNetwork.nodes[169].connectionManager passiveListUpdate:vector ETV
vector 692 FloodSubNetwork.nodes[52].connectionManager passiveListUpdate:vector ETV
vector 693 FloodSubNetwork.nodes[954].connectionManager passiveListUpdate:vector ETV
vector 694 FloodSubNetwork.nodes[187].connectionManager passiveListUpdate:vector ETV
vector 695 FloodSubNetwork.nodes[652].connectionManager passiveListUpdate:vector ETV
vector 696 FloodSubNetwork.nodes[432].connectionManager passiveListUpdate:vector ETV
vector 697 FloodSubNetwork.nodes[312].connectionManager passiveListUpdate:vector ETV
vector 698 FloodSubNetwork.nodes[275].connectionManager passiveListUpdate:vector ETV
vector 699 FloodSubNetwork.nodes[639].connectionManager passiveListUpdate:vector ETV
vector 700 FloodSubNetwork.nodes[584].connectionManager passiveListUpdate:vector ETV
vector 701 FloodSubNetwork.nodes[179].connectionManager passiveListUpdate:vector ETV
vector 702 FloodSubNetwork.nodes[832].connectionManager passiveListUpdate:vector ETV
vector 703 FloodSubNetwork.nodes[785].connectionManager passiveListUpdate:vector ETV
vector 704 FloodSubNetwork.nodes[783].connectionManager passiveListUpdate:vector ETV
vector 705 FloodSubNetwork.nodes[558].connectionManager passiveListUpdate:vector ETV
vector 706 FloodSubNetwork.nodes[513].connectionManager passiveListUpdate:vector ETV
vector 707 FloodSubNetwork.nodes[379].connectionManager passiveListUpdate:vector ETV
vector 708 FloodSubNetwork.nodes[740].connectionManager passiveListUpdate:vector ETV
vector 709 FloodSubNetwork.nodes[11].connectionManager passiveListUpdate:vector ETV
vector 710 FloodSubNetwork.nodes[377].connectionManager passiveListUpdate:vector ETV
vector 711 FloodSubNetwork.nodes[249].connectionManager passiveListUpdate:vector ETV
vector 712 FloodSubNetwork.nodes[682].connectionManager passiveListUpdate:vector ETV
vector 713 FloodSubNetwork.nodes[243].connectionManager passiveListUpdate:vector ETV
vector 714 FloodSubNetwork.nodes[721].connectionManager passiveListUpdate:vector ETV
vector 715 FloodSubNetwork.nodes[502].connectionManager passiveListUpdate:vector ETV
vector 716 FloodSubNetwork.nodes[914].connectionManager passiveListUpdate:vector ETV
vector 717 FloodSubNetwork.nodes[734].connectionManager passiveListUpdate:vector ETV
vector 718 FloodSubNetwork.nodes[324].connectionManager passiveListUpdate:vector ETV
vector 719 FloodSubNetwork.nodes[576].connectionManager passiveListUpdate:vector ETV
vector 720 FloodSubNetwork.nodes[987].connectionManager passiveListUpdate:vector ETV
vector 721 FloodSubNetwork.nodes[280].connectionManager passiveListUpdate:vector ETV
vector 722 FloodSubNetwork.nodes[996].connectionManager passiveListUpdate:vector ETV
vector 723 FloodSubNetwork.nodes[769].connectionManager passiveListUpdate:vector ETV
vector 724 FloodSubNetwork.nodes[283].connectionManager passiveListUpdate:vector ETV
vector 725 FloodSubNetwork.nodes[423].connectionManager passiveListUpdate:vector ETV
vector 726 FloodSubNetwork.nodes[642].connectionManager passiveListUpdate:vector ETV
vector 727 FloodSubNetwork.nodes[96].connectionManager passiveListUpdate:vector ETV
vector 728 FloodSubNetwork.nodes[45].connectionManager passiveListUpdate:vector ETV
vector 729 FloodSubNetwork.nodes[776].connectionManager passiveListUpdate:vector ETV
vector 730 FloodSubNetwork.nodes[843].connectionManager passiveListUpdate:vector ETV
vector 731 FloodSubNetwork.nodes[524].connectionManager passiveListUpdate:vector ETV
vector 732 FloodSubNetwork.nodes[319].connectionManager passiveListUpdate:vector ETV
vector 733 FloodSubNetwork.nodes[85].connectionManager passiveListUpdate:vector ETV
vector 734 FloodSubNetwork.nodes[47].connectionManager passiveListUpdate:vector ETV
vector 735 FloodSubNetwork.nodes[945].connectionManager passiveListUpdate:vector ETV
vector 736 FloodSubNetwork.nodes[62].connectionManager passiveListUpdate:vector ETV
vector 737 FloodSubNetwork.nodes[949].connectionManager passiveListUpdate:vector ETV
vector 738 FloodSubNetwork.nodes[807].connectionManager passiveListUpdate:vector ETV
vector 739 FloodSubNetwork.nodes[928].connectionManager passiveListUpdate:vector ETV
vector 740 FloodSubNetwork.nodes[292].connectionManager passiveListUpdate:vector ETV
vector 741 FloodSubNetwork.nodes[518].connectionManager passiveListUpdate:vector ETV
vector 742 FloodSubNetwork.nodes[907].connectionManager passiveListUpdate:vector ETV
vector 743 FloodSubNetwork.nodes[396].connectionManager passiveListUpdate:vector ETV
vector 744 FloodSubNetwork.nodes[839].connectionManager passiveListUpdate:vector ETV
vector 745 FloodSubNetwork.nodes[170].connectionManager passiveListUpdate:vector ETV
vector 746 FloodSubNetwork.nodes[750].connectionManager passiveListUpdate:vector ETV
vector 747 FloodSubNetwork.nodes[594].connectionManager passiveListUpdate:vector ETV
vector 748 FloodSubNetwork.nodes[640].connectionManager passiveListUpdate:vector ETV
vector 749 FloodSubNetwork.nodes[919].connectionManager passiveListUpdate:vector ETV
vector 750 FloodSubNetwork.nodes[511].connectionManager passiveListUpdate:vector ETV
vector 751 FloodSubNetwork.nodes[90].connectionManager passiveListUpdate:vector ETV
vector 752 FloodSubNetwork.nodes[33].connectionManager passiveListUpdate:vector ETV
vector 753 FloodSubNetwork.nodes[145].connectionManager passiveListUpdate:vector ETV
vector 754 FloodSubNetwork.nodes[210].connectionManager passiveListUpdate:vector ETV
vector 755 FloodSubNetwork.nodes[412].connectionManager passiveListUpdate:vector ETV
vector 756 FloodSubNetwork.nodes[759].connectionManager passiveListUpdate:vector ETV
vector 757 FloodSubNetwork.nodes[271].connectionManager passiveListUpdate:vector ETV
vector 758 FloodSubNetwork.nodes[102].connectionManager passiveListUpdate:vector ETV
vector 759 FloodSubNetwork.nodes[409].connectionManager passiveListUpdate:vector ETV
vector 760 FloodSubNetwork.nodes[333].connectionManager passiveListUpdate:vector ETV
vector 761 FloodSubNetwork.nodes[545].connectionManager passiveListUpdate:vector ETV
vector 762 FloodSubNetwork.nodes[378].connectionManager passiveListUpdate:vector ETV
vector 763 FloodSubNetwork.nodes[309].connectionManager passiveListUpdate:vector ETV
vector 764 FloodSubNetwork.nodes[530].connectionManager passiveListUpdate:vector ETV
vector 765 FloodSubNetwork.nodes[901].connectionManager passiveListUpdate:vector ETV
vector 766 FloodSubNetwork.nodes[32].connectionManager passiveListUpdate:vector ETV
vector 767 FloodSubNetwork.nodes[463].connectionManager passiveListUpdate:vector ETV
vector 768 FloodSubNetwork.nodes[671].connectionManager passiveListUpdate:vector ETV
vector 769 FloodSubNetwork.nodes[95].connectionManager passiveListUpdate:vector ETV
vector 770 FloodSubNetwork.nodes[316].connectionManager passiveListUpdate:vector ETV
vector 771 FloodSubNetwork.nodes[920].connectionManager passiveListUpdate:vector ETV
vector 772 FloodSubNetwork.nodes[988].connectionManager passiveListUpdate:vector ETV
vector 773 FloodSubNetwork.nodes[818].connectionManager passiveListUpdate:vector ETV
vector 774 FloodSubNetwork.nodes[836].connectionManager passiveListUpdate:vector ETV
vector 775 FloodSubNetwork.nodes[206].connectionManager passiveListUpdate:vector ETV
vector 776 FloodSubNetwork.nodes[61].connectionManager passiveListUpdate:vector ETV
vector 777 FloodSubNetwork.nodes[565].connectionManager passiveListUpdate:vector ETV
vector 778 FloodSubNetwork.nodes[466].connectionManager passiveListUpdate:vector ETV
vector 779 FloodSubNetwork.nodes[461].connectionManager passiveListUpdate:vector ETV
vector 780 FloodSubNetwork.nodes[88].connectionManager passiveListUpdate:vector ETV
vector 781 FloodSubNetwork.nodes[970].connectionManager passiveListUpdate:vector ETV
vector 782 FloodSubNetwork.nodes[667].connectionManager passiveListUpdate:vector ETV
vector 783 FloodSubNetwork.nodes[804].connectionManager passiveListUpdate:vector ETV
vector 784 FloodSubNetwork.nodes[197].connectionManager passiveListUpdate:vector ETV
vector 785 FloodSubNetwork.nodes[344].connectionManager passiveListUpdate:vector ETV
vector 786 FloodSubNetwork.nodes[245].connectionManager passiveListUpdate:vector ETV
vector 787 FloodSubNetwork.nodes[462].connectionManager passiveListUpdate:vector ETV
vector 788 FloodSubNetwork.nodes[950].connectionManager passiveListUpdate:vector ETV
vector 789 FloodSubNetwork.nodes[103].connectionManager passiveListUpdate:vector ETV
vector 790 FloodSubNetwork.nodes[596].connectionManager passiveListUpdate:vector ETV
vector 791 FloodSubNetwork.nodes[887].connectionManager passiveListUpdate:vector ETV
vector 792 FloodSubNetwork.nodes[273].connectionManager passiveListUpdate:vector ETV
vector 793 FloodSubNetwork.nodes[690].connectionManager passiveListUpdate:vector ETV
vector 794 FloodSubNetwork.nodes[178].connectionManager passiveListUpdate:vector ETV
vector 795 FloodSubNetwork.nodes[967].connectionManager passiveListUpdate:vector ETV
vector 796 FloodSubNetwork.nodes[431].connectionManager passiveListUpdate:vector ETV
vector 797 FloodSubNetwork.nodes[100].connectionManager passiveListUpdate:vector ETV
vector 798 FloodSubNetwork.nodes[362].connectionManager passiveListUpdate:vector ETV
vector 799 FloodSubNetwork.nodes[482].connectionManager passiveListUpdate:vector ETV
vector 800 FloodSubNetwork.nodes[591].connectionManager passiveListUpdate:vector ETV
vector 801 FloodSubNetwork.nodes[635].connectionManager passiveListUpdate:vector ETV
vector 802 FloodSubNetwork.nodes[198].connectionManager passiveListUpdate:vector ETV
vector 803 FloodSubNetwork.nodes[50].connectionManager passiveListUpdate:vector ETV
vector 804 FloodSubNetwork.nodes[304].connectionManager passiveListUpdate:vector ETV
vector 805 FloodSubNetwork.nodes[260].connectionManager passiveListUpdate:vector ETV
vector 806 FloodSubNetwork.nodes[677].connectionManager passiveListUpdate:vector ETV
vector 807 FloodSubNetwork.nodes[278].connectionManager passiveListUpdate:vector ETV
vector 808 FloodSubNetwork.nodes[184].connectionManager passiveListUpdate:vector ETV
vector 809 FloodSubNetwork.nodes[269].connectionManager passiveListUpdate:vector ETV
vector 810 FloodSubNetwork.nodes[368].connectionManager passiveListUpdate:vector ETV
vector 811 FloodSubNetwork.nodes[348].connectionManager passiveListUpdate:vector ETV
vector 812 FloodSubNetwork.nodes[391].connectionManager passiveListUpdate:vector ETV
vector 813 FloodSubNetwork.nodes[53].connectionManager passiveListUpdate:vector ETV
vector 814 FloodSubNetwork.nodes[544].connectionManager passiveListUpdate:vector ETV
vector 815 FloodSubNetwork.nodes[607].connectionManager passiveListUpdate:vector ETV
vector 816 FloodSubNetwork.nodes[935].connectionManager passiveListUpdate:vector ETV
vector 817 FloodSubNetwork.nodes[551].connectionManager passiveListUpdate:vector ETV
vector 818 FloodSubNetwork.nodes[571].connectionManager passiveListUpdate:vector ETV
vector 819 FloodSubNetwork.nodes[457].connectionManager passiveListUpdate:vector ETV
vector 820 FloodSubNetwork.nodes[675].connectionManager passiveListUpdate:vector ETV
vector 821 FloodSubNetwork.nodes[900].connectionManager passiveListUpdate:vector ETV
vector 822 FloodSubNetwork.nodes[626].connectionManager passiveListUpdate:vector ETV
vector 823 FloodSubNetwork.nodes[879].connectionManager passiveListUpdate:vector ETV
vector 824 FloodSubNetwork.nodes[337].connectionManager passiveListUpdate:vector ETV
vector 825 FloodSubNetwork.nodes[556].connectionManager passiveListUpdate:vector ETV
vector 826 FloodSubNetwork.nodes[764].connectionManager passiveListUpdate:vector ETV
vector 827 FloodSubNetwork.nodes[70].connectionManager passiveListUpdate:vector ETV
vector 828 FloodSubNetwork.nodes[526].connectionManager passiveListUpdate:vector ETV
vector 829 FloodSubNetwork.nodes[165].connectionManager passiveListUpdate:vector ETV
vector 830 FloodSubNetwork.nodes[108].connectionManager passiveListUpdate:vector ETV
vector 831 FloodSubNetwork.nodes[211].connectionManager passiveListUpdate:vector ETV
vector 832 FloodSubNetwork.nodes[554].connectionManager passiveListUpdate:vector ETV
vector 833 FloodSubNetwork.nodes[733].connectionManager passiveListUpdate:vector ETV
vector 834 FloodSubNetwork.nodes[897].connectionManager passiveListUpdate:vector ETV
vector 835 FloodSubNetwork.nodes[719].connectionManager passiveListUpdate:vector ETV
vector 836 FloodSubNetwork.nodes[112].connectionManager passiveListUpdate:vector ETV
vector 837 FloodSubNetwork.nodes[647].connectionManager passiveListUpdate:vector ETV
vector 838 FloodSubNetwork.nodes[16].connectionManager passiveListUpdate:vector ETV
vector 839 FloodSubNetwork.nodes[426].connectionManager passiveListUpdate:vector ETV
vector 840 FloodSubNetwork.nodes[392].connectionManager passiveListUpdate:vector ETV
vector 841 FloodSubNetwork.nodes[226].connectionManager passiveListUpdate:vector ETV
vector 842 FloodSubNetwork.nodes[904].connectionManager passiveListUpdate:vector ETV
vector 843 FloodSubNetwork.nodes[84].connectionManager passiveListUpdate:vector ETV
vector 844 FloodSubNetwork.nodes[405].connectionManager passiveListUpdate:vector ETV
vector 845 FloodSubNetwork.nodes[726].connectionManager passiveListUpdate:vector ETV
vector 846 FloodSubNetwork.nodes[655].connectionManager passiveListUpdate:vector ETV
vector 847 FloodSubNetwork.nodes[620].connectionManager passiveListUpdate:vector ETV
vector 848 FloodSubNetwork.nodes[345].connectionManager passiveListUpdate:vector ETV
vector 849 FloodSubNetwork.nodes[135].connectionManager passiveListUpdate:vector ETV
vector 850 FloodSubNetwork.nodes[488].connectionManager passiveListUpdate:vector ETV
vector 851 FloodSubNetwork.nodes[444].connectionManager passiveListUpdate:vector ETV
vector 852 FloodSubNetwork.nodes[437].connectionManager passiveListUpdate:vector ETV
vector 853 FloodSubNetwork.nodes[803].connectionManager passiveListUpdate:vector ETV
vector 854 FloodSubNetwork.nodes[455].connectionManager passiveListUpdate:vector ETV
vector 855 FloodSubNetwork.nodes[931].connectionManager passiveListUpdate:vector ETV
vector 856 FloodSubNetwork.nodes[651].connectionManager passiveListUpdate:vector ETV
vector 857 FloodSubNetwork.nodes[706].connectionManager passiveListUpdate:vector ETV
vector 858 FloodSubNetwork.nodes[878].connectionManager passiveListUpdate:vector ETV
vector 859 FloodSubNetwork.nodes[10].connectionManager passiveListUpdate:vector ETV
vector 860 FloodSubNetwork.nodes[773].connectionManager passiveListUpdate:vector ETV
vector 861 FloodSubNetwork.nodes[507].connectionManager passiveListUpdate:vector ETV
vector 862 FloodSubNetwork.nodes[574].connectionManager passiveListUpdate:vector ETV
vector 863 FloodSubNetwork.nodes[97].connectionManager passiveListUpdate:vector ETV
vector 864 FloodSubNetwork.nodes[697].connectionManager passiveListUpdate:vector ETV
vector 865 FloodSubNetwork.nodes[322].connectionManager passiveListUpdate:vector ETV
vector 866 FloodSubNetwork.nodes[953].connectionManager passiveListUpdate:vector ETV
vector 867 FloodSubNetwork.nodes[113].connectionManager passiveListUpdate:vector ETV
vector 868 FloodSubNetwork.nodes[277].connectionManager passiveListUpdate:vector ETV
vector 869 FloodSubNetwork.nodes[207].connectionManager passiveListUpdate:vector ETV
vector 870 FloodSubNetwork.nodes[93].connectionManager passiveListUpdate:vector ETV
vector 871 FloodSubNetwork.nodes[80].connectionManager passiveListUpdate:vector ETV
vector 872 FloodSubNetwork.nodes[422].connectionManager passiveListUpdate:vector ETV
vector 873 FloodSubNetwork.nodes[497].connectionManager passiveListUpdate:vector ETV
vector 874 FloodSubNetwork.nodes[791].connectionManager passiveListUpdate:vector ETV
vector 875 FloodSubNetwork.nodes[201].connectionManager passiveListUpdate:vector ETV
vector 876 FloodSubNetwork.nodes[543].connectionManager passiveListUpdate:vector ETV
vector 877 FloodSubNetwork.nodes[59].connectionManager passiveListUpdate:vector ETV
vector 878 FloodSubNetwork.nodes[40].connectionManager passiveListUpdate:vector ETV
vector 879 FloodSubNetwork.nodes[732].connectionManager passiveListUpdate:vector ETV
vector 880 FloodSubNetwork.nodes[753].connectionManager passiveListUpdate:vector ETV
vector 881 FloodSubNetwork.nodes[190].connectionManager passiveListUpdate:vector ETV
vector 882 FloodSubNetwork.nodes[621].connectionManager passiveListUpdate:vector ETV
vector 883 FloodSubNetwork.nodes[880].connectionManager passiveListUpdate:vector ETV
vector 884 FloodSubNetwork.nodes[730].connectionManager passiveListUpdate:vector ETV
vector 885 FloodSubNetwork.nodes[817].connectionManager passiveListUpdate:vector ETV
vector 886 FloodSubNetwork.nodes[643].connectionManager passiveListUpdate:vector ETV
vector 887 FloodSubNetwork.nodes[569].connectionManager passiveListUpdate:vector ETV
vector 888 FloodSubNetwork.nodes[2].connectionManager passiveListUpdate:vector ETV
vector 889 FloodSubNetwork.nodes[453].connectionManager passiveListUpdate:vector ETV
vector 890 FloodSubNetwork.nodes[153].connectionManager passiveListUpdate:vector ETV
vector 891 FloodSubNetwork.nodes[60].connectionManager passiveListUpdate:vector ETV
vector 892 FloodSubNetwork.nodes[192].connectionManager passiveListUpdate:vector ETV
vector 893 FloodSubNetwork.nodes[611].connectionManager passiveListUpdate:vector ETV
vector 894 FloodSubNetwork.nodes[509].connectionManager passiveListUpdate:vector ETV
vector 895 FloodSubNetwork.nodes[598].connectionManager passiveListUpdate:vector ETV
vector 896 FloodSubNetwork.nodes[826].connectionManager passiveListUpdate:vector ETV
vector 897 FloodSubNetwork.nodes[208].connectionManager passiveListUpdate:vector ETV
vector 898 FloodSubNetwork.nodes[947].connectionManager passiveListUpdate:vector ETV
vector 899 FloodSubNetwork.nodes[833].connectionManager passiveListUpdate:vector ETV
vector 900 FloodSubNetwork.nodes[595].connectionManager passiveListUpdate:vector ETV
vector 901 FloodSubNetwork.nodes[284].connectionManager passiveListUpdate:vector ETV
vector 902 FloodSubNetwork.nodes[116].connectionManager passiveListUpdate:vector ETV
vector 903 FloodSubNetwork.nodes[691].connectionManager passiveListUpdate:vector ETV
vector 904 FloodSubNetwork.nodes[909].connectionManager passiveListUpdate:vector ETV
vector 905 FloodSubNetwork.nodes[772].connectionManager passiveListUpdate:vector ETV
vector 906 FloodSubNetwork.nodes[767].connectionManager passiveListUpdate:vector ETV
vector 907 FloodSubNetwork.nodes[335].connectionManager passiveListUpdate:vector ETV
vector 908 FloodSubNetwork.nodes[248].connectionManager passiveListUpdate:vector ETV
vector 909 FloodSubNetwork.nodes[899].connectionManager passiveListUpdate:vector ETV
vector 910 FloodSubNetwork.nodes[459].connectionManager passiveListUpdate:vector ETV
vector 911 FloodSubNetwork.nodes[939].connectionManager passiveListUpdate:vector ETV
vector 912 FloodSubNetwork.nodes[741].connectionManager passiveListUpdate:vector ETV
vector 913 FloodSubNetwork.nodes[39].connectionManager passiveListUpdate:vector ETV
vector 914 FloodSubNetwork.nodes[735].connectionManager passiveListUpdate:vector ETV
vector 915 FloodSubNetwork.nodes[617].connectionManager passiveListUpdate:vector ETV
vector 916 FloodSubNetwork.nodes[115].connectionManager passiveListUpdate:vector ETV
vector 917 FloodSubNetwork.nodes[223].connectionManager passiveListUpdate:vector ETV
vector 918 FloodSubNetwork.nodes[367].connectionManager passiveListUpdate:vector ETV
vector 919 FloodSubNetwork.nodes[199].connectionManager passiveListUpdate:vector ETV
vector 920 FloodSubNetwork.nodes[515].connectionManager passiveListUpdate:vector ETV
vector 921 FloodSubNetwork.nodes[196].connectionManager passiveListUpdate:vector ETV
vector 922 FloodSubNetwork.nodes[965].connectionManager passiveListUpdate:vector ETV
vector 923 FloodSubNetwork.nodes[709].connectionManager passiveListUpdate:vector ETV
vector 924 FloodSubNetwork.nodes[684].connectionManager passiveListUpdate:vector ETV
vector 925 FloodSubNetwork.nodes[956].connectionManager passiveListUpdate:vector ETV
[...]
788	19811999 2837 201939116 220908018 510.631310497145 598.655430294775 84 21 21 1764 37044
789	19814836 2475 201588490 221026358 509.391841727653 599.330032964242 73 21 21 1533 32193
790	19817311 2850 201602627 221065265 509.447914225771 599.945589414258 84 21 21 1764 37044
791	19820161 2914 201534395 221028080 509.164563203551 599.447643713862 86 21 21 1806 37926
792	19823075 2780 201573219 221026296 509.332651340047 599.328206382697 82 22 22 1804 39688
793	19825855 2710 201833168 220855883 510.28882087254 598.272490490048 80 21 21 1680 35280
794	19828565 2712 201589934 220894332 509.397948435068 598.575849482185 80 21 21 1680 35280
795	19831277 2810 201767054 220928040 510.068422998906 598.750062282964 83 21 21 1743 36603
796	19834087 2368 202012113 220978484 510.811040431334 598.95418572807 70 21 21 1470 30870
797	19836455 2850 201722829 221057549 509.916789757769 599.870074425694 84 21 21 1764 37044
798	19839305 2917 202061739 221029649 510.935070361763 599.506555056791 86 21 21 1806 37926
799	19842222 3247 201606750 221027670 509.463569438214 599.405517135498 96 21 21 2016 42336
800	19845469 3157 201726428 221067706 509.931399471054 599.973162900311 93 22 22 2046 45012
801	19848626 2986 201803150 221066817 510.197017436681 599.963444337178 88 21 21 1848 38808
802	19851612 2438 201567208 220929857 509.307386108084 598.758345367386 72 21 21 1512 31752
803	19854050 2338 201716746 221054981 509.889955714292 599.845003790965 69 21 21 1449 30429
804	19856388 2610 201639089 220883170 509.580137872526 598.514400606775 77 21 21 1617 33957
805	19858998 2911 201912229 221062637 510.555790019553 599.919738997138 86 21 21 1806 37926
806	19861909 2608 202085949 221001154 511.007862506789 599.055819784601 77 21 21 1617 33957
807	19864517 2744 201560488 221025952 509.277813900862 599.316441093932 81 21 21 1701 35721
808	19867261 2068 202125921 221037825 511.156917923603 599.670427299659 61 21 21 1281 26901
809	19869329 2333 201725518 221068653 509.92790664019 599.985358997533 69 21 21 1449 30429
810	19871662 2716 201690434 221067858 509.791111047139 599.974850093804 80 21 21 1680 35280
811	19874378 2811 202036206 221031415 510.86975447127 599.58436654326 83 21 21 1743 36603
812	19877189 2708 201897920 220872065 510.512807687127 598.42683605405 80 21 21 1680 35280
813	19879897 2844 201798996 220925762 510.185493239391 598.740184157927 84 21 21 1764 37044
814	19882741 2510 201664491 221056030 509.685510579251 599.855269721733 74 21 21 1554 32634
815	19885251 2470 201877662 220872907 510.445838115591 598.428913541251 73 21 21 1533 32193
816	19887721 3055 201675039 221059457 509.726268330425 599.888323375739 90 21 21 1890 39690
817	19890776 3081 201988232 221015238 510.756939671073 599.152359017328 91 21 21 1911 40131
818	19893857 2982 201865432 221035694 510.395335882686 599.645599878013 88 22 22 1936 42592
819	19896839 2302 201994617 220939785 510.772777449511 598.800936185907 68 22 22 1496 32912
820	19899141 2848 201584051 221029516 509.378459058604 599.494383227669 84 21 21 1764 37044
821	19901989 3561 201745370 220863558 509.998882125836 598.350494992042 105 21 21 2205 46305
822	19905550 2649 201881136 220895826 510.455203053901 598.586736377757 78 21 21 1638 34398
823	19908199 2241 201869562 221059026 510.411890673391 599.884666160495 66 21 21 1386 29106
824	19910440 2506 201635472 220848343 509.566612833932 598.153864778777 74 21 21 1554 32634
825	19912946 2780 201661957 221056674 509.677471440956 599.861582571333 82 21 21 1722 36162
826	19915726 3249 201540568 221027764 509.19063840265 599.415922311186 96 21 21 2016 42336
827	19918975 2744 201541066 221027572 509.192788265928 599.39579211155 81 21 21 1701 35721
828	19921719 2675 201727985 220864845 509.938135519408 598.363744347834 79 21 21 1659 34839
829	19924394 2647 201828054 220863796 510.273268220005 598.353017197303 78 21 21 1638 34398
830	19927041 2748 201644299 221035578 509.602569977503 599.643669463973 81 21 21 1701 35721
831	19929789 2981 201753400 221033564 510.027395828611 599.61269854403 88 21 21 1848 38808
832	19932770 2512 201751366 221039147 510.019656822875 599.684582015656 74 21 21 1554 32634
833	19935282 3527 201682561 220867404 509.757002946013 598.388506881552 104 21 21 2184 45864
834	19938809 2615 201574871 220931118 509.340594677995 598.763639705176 77 21 21 1617 33957
835	19941424 2746 202061621 220917013 510.934705301886 598.70500709279 81 21 21 1701 35721
836	19944170 3146 201699475 220896451 509.827420306833 598.590219869904 93 21 21 1953 41013
837	19947316 2436 201621190 221028536 509.518796447521 599.461547218334 72 21 21 1512 31752
838	19949752 2475 201681679 220899266 509.753344431293 598.606353518523 73 21 21 1533 32193
839	19952227 2643 201656661 220871095 509.659215275586 598.422606765336 78 21 21 1638 34398
840	19954870 2706 201731625 221057778 509.954301226663 599.872547776761 80 21 21 1680 35280
841	19957576 2372 201581772 221008723 509.367607178185 599.101233959424 70 21 21 1470 30870
842	19959948 2540 201646560 221041644 509.612500812287 599.710156179861 75 21 21 1575 33075
843	19962488 2743 202096651 220983594 511.047428407455 598.97516352519 81 21 21 1701 35721
844	19965231 2950 201595683 220966769 509.420335169708 598.905903973051 87 21 21 1827 38367
845	19968181 2208 201731270 220891612 509.952440821066 598.561894239471 65 21 21 1365 28665
846	19970389 2777 201563534 221023613 509.289409025487 599.259199521005 82 21 21 1722 36162
847	19973166 2675 201536024 220994739 509.1718464536 599.02443513744 79 21 21 1659 34839
848	19975841 2876 201608315 221028069 509.469967242715 599.446164912151 85 21 21 1785 37485
849	19978717 3021 202100825 220975823 511.062571158962 598.943230605291 89 21 21 1869 39249
850	19981738 2475 201756518 221053547 510.036290931534 599.828681477872 73 21 21 1533 32193
851	19984213 2951 201801353 221045286 510.191269510914 599.747449768358 87 21 21 1827 38367
852	19987164 2545 201828724 220939041 510.274949157302 598.797892212996 75 21 21 1575 33075
853	19989709 2163 201768489 220832253 510.073150362875 597.989309421173 64 21 21 1344 28224
854	19991872 2871 201982846 220975931 510.744162440055 598.943867739341 85 22 22 1870 41140
855	19994743 2882 201972463 220897445 510.718974487559 598.596453972122 85 21 21 1785 37485
856	19997625 3120 201850005 221030093 510.340836877581 599.541947378899 92 21 21 1932 40572
857	20000745 2716 201610436 221027552 509.478340083027 599.394142054337 80 21 21 1680 35280
858	20003461 3080 201634821 220902665 509.564039344087 598.625715452664 91 21 21 1911 40131
859	20006541 2885 201658426 220885541 509.665302822916 598.529996375242 85 22 22 1870 41140
860	20009426 2468 201880935 221060709 510.454446500199 599.900653053532 73 21 21 1533 32193
861	20011894 2778 201547832 220839095 509.22263500421 598.047755996859 82 21 21 1722 36162
862	20014672 3184 201708704 221058298 509.857818294803 599.87779851922 94 22 22 2068 45496
863	20017856 2671 201591210 221056096 509.403950089331 599.855849117329 79 21 21 1659 34839
864	20020527 2611 201551162 221027399 509.238501339118 599.382903310133 77 21 21 1617 33957
865	20023138 2583 201727529 221047321 509.935784214997 599.766029088622 76 21 21 1596 33516
866	20025721 2980 201856350 221043164 510.361541409299 599.725681254624 88 22 22 1936 42592
867	20028701 3018 202077609 220981472 510.979959071104 598.965750718828 89 21 21 1869 39249
868	20031719 2671 201717034 221057670 509.890985289845 599.871487844114 79 21 21 1659 34839
869	20034390 3188 201573901 221026364 509.336157231435 599.330255884276 94 21 21 1974 41454
870	20037578 2546 201666532 221038250 509.695411603874 599.674982547634 75 21 21 1575 33075
871	20040124 2740 201727084 221059951 509.934065243356 599.89342834161 81 22 22 1782 39204
872	20042864 2234 201786964 220848895 510.14367231687 598.16698608679 66 21 21 1386 29106
873	20045098 2645 201731803 221049111 509.955165066063 599.780812722884 78 21 21 1638 34398
874	20047743 2539 202009985 220970714 510.806913387272 598.922142059344 75 21 21 1575 33075
875	20050282 2607 201716835 221042174 509.890253527175 599.715366357866 77 21 21 1617 33957
876	20052889 2613 201945691 221029896 510.647896586978 599.527216928219 77 21 21 1617 33957
877	20055502 2881 201609650 220985627 509.475203072879 598.982930101578 85 21 21 1785 37485
878	20058383 1962 201950942 220907153 510.663058819486 598.651010127715 58 21 21 1218 25578
879	20060345 2951 201619713 221053046 509.512793389732 599.82438984266 87 21 21 1827 38367
880	20063296 2614 201557638 221027170 509.263748006405 599.366274168186 77 21 21 1617 33957
881	20065910 3183 201763743 220845843 510.05857158469 598.113467750202 94 21 21 1974 41454
882	20069093 2309 201935924 220894783 510.621647979236 598.578758982868 68 21 21 1428 29988
883	20071402 2600 201883859 221047544 510.466006515053 599.76829090669 77 21 21 1617 33957
884	20074002 3289 201678787 221042507 509.741585994619 599.718493598524 97 21 21 2037 42777
885	20077291 3221 201659213 221045601 509.668628988325 599.750744450018 95 21 21 1995 41895
886	20080512 3051 201614465 221069030 509.494577520928 599.990924810143 90 21 21 1890 39690
887	20083563 2609 201540818 221069190 509.19164705305 599.992908090919 77 21 21 1617 33957
888	20086172 122572 201533884 221068324 509.162886491415 599.980584683035 3512 284 330 1077547 331217307
889	20208744 3016 202061209 221066236 510.933791905597 599.95687057464 89 21 21 1869 39249
890	20211760 2645 201648480 221038868 509.621719682821 599.681309502058 78 21 21 1638 34398
891	20214405 2883 201540992 221030163 509.192435610444 599.548073372937 85 21 21 1785 37485
892	20217288 2441 201844615 220859330 510.324123671594 598.309840294955 72 21 21 1512 31752
893	20219729 2102 202092420 220918755 511.030557910694 598.711814399121 62 21 21 1302 27342
894	20221831 3083 201604984 221050384 509.457000123966 599.794389901522 91 21 21 1911 40131
895	20224914 2580 201911760 220854702 510.554141869437 598.256963526927 76 21 21 1596 33516
896	20227494 3045 202027949 221025969 510.849519620646 599.316993377779 90 21 21 1890 39690
897	20230539 2956 201762214 221044974 510.052949584894 599.744851636437 87 21 21 1827 38367
898	20233495 2267 202101756 220987275 511.066794284939 598.990871987502 67 21 21 1407 29547
899	20235762 2609 201673144 221054065 509.71759859123 599.835877305376 77 21 21 1617 33957
900	20238371 2368 201708763 220997680 509.858156273276 599.038266346654 70 21 21 1470 30870
901	20240739 2541 201649478 221033824 509.626406485994 599.618678461113 75 21 21 1575 33075
902	20243280 2573 201839675 220943677 510.309340788336 598.816459890213 76 21 21 1596 33516
903	20245853 2407 201642028 221039789 509.592732523495 599.690495270419 71 21 21 1491 31311
904	20248260 2677 201869384 220887020 510.411167807524 598.540392889839 79 21 21 1659 34839
905	20250937 2949 201769115 221058132 510.075403347158 599.876026428779 87 22 22 1914 42108
906	20253886 2481 201701170 221054205 509.834957136371 599.837502744741 73 21 21 1533 32193
907	20256367 2609 201677808 220982230 509.737423307366 598.968823026481 77 21 21 1617 33957
908	20258976 2542 201812765 220854059 510.226511170602 598.245079762468 75 22 22 1650 36300
909	20261518 2343 201563371 221029887 509.288701370196 599.526535930622 69 21 21 1449 30429
910	20263861 2679 202131856 221006646 511.179125357934 599.087335187011 79 21 21 1659 34839
911	20266540 2779 201647751 221060266 509.618105474638 599.896213298177 82 21 21 1722 36162
912	20269319 2475 202108943 221014412 511.086706206995 599.144736257115 73 21 21 1533 32193
913	20271794 2711 201650975 221018732 509.633231747392 599.186163723415 80 21 21 1680 35280
914	20274505 2708 201741663 221069232 509.98742004889 599.993448555831 80 21 21 1680 35280
915	20277213 2746 202047063 221005892 510.897642326391 599.082539570817 81 21 21 1701 35721
916	20279959 2739 201928738 220904318 510.60253671527 598.636212849417 81 22 22 1782 39204
917	20282698 2819 201564477 221022643 509.293679466866 599.241739861392 83 21 21 1743 36603
918	20285517 2576 201661878 221030266 509.677120251121 599.55622512657 76 22 22 1672 36784
919	20288093 3052 201624153 221033599 509.529931377429 599.61302458904 90 21 21 1890 39690
920	20291145 2574 202107344 221023207 511.080240351501 599.251858734258 76 21 21 1596 33516
921	20293719 2539 201715560 220997361 509.885138638702 599.03683710616 75 21 21 1575 33075
922	20296258 3221 201740057 221069246 509.980067613048 599.993581674007 95 21 21 1995 41895
923	20299479 2375 201630930 221065147 509.551541842735 599.944437795046 70 21 21 1470 30870
924	20301854 2951 201775731 220904087 510.101641642204 598.634818569769 87 21 21 1827 38367
925	20304805 2813 202120573 220983427 511.138543430999 598.97410676512 83 21 21 1743 36603
926	20307618 2674 201713670 221068898 509.878444765173 599.98845714037 79 21 21 1659 34839
927	20310292 2677 201813785 220862884 510.229272967945 598.34350252611 79 21 21 1659 34839
928	20312969 2842 201565317 221027224 509.297386993882 599.369746414402 84 21 21 1764 37044
929	20315811 2304 201596752 221029778 509.4231323415 599.518261272379 68 21 21 1428 29988
930	20318115 2875 201663778 221028061 509.682660043968 599.445945439467 85 21 21 1785 37485
931	20320990 2576 201711658 221051035 509.870643982862 599.802295961809 76 21 21 1596 33516
932	20323566 2777 201875781 221035491 510.437269379945 599.642966326671 82 21 21 1722 36162
933	20326343 2741 201637574 220968225 509.57448385006 598.911877052912 81 21 21 1701 35721
934	20329084 2648 201675613 220849249 509.728497344806 598.174474574882 78 21 21 1638 34398
935	20331732 2578 201607091 221035061 509.465092620762 599.636648312067 76 21 21 1596 33516
936	20334310 2509 201846640 220866480 510.33079690112 598.380092162821 74 21 21 1554 32634
937	20336819 3042 201972232 220981455 510.71836196078 598.965664349308 90 22 22 1980 43560
938	20339861 2809 202030351 221012647 510.855851625847 599.129739245931 83 21 21 1743 36603
939	20342670 2609 201737466 220813822 509.970532648651 597.858285392977 77 21 21 1617 33957
940	20345279 2950 201896427 221033166 510.506565543283 599.604495167108 87 21 21 1827 38367
941	20348229 2545 201768443 220848390 510.073044253232 598.154590181141 75 21 21 1575 33075
942	20350774 2884 201549904 221067223 509.233120228822 599.967545798491 85 21 21 1785 37485
943	20353658 2374 201937804 221023479 510.627316759251 599.256443589479 70 21 21 1470 30870
944	20356032 2442 201697657 221052226 509.821075242368 599.814967477143 72 22 22 1584 34848
945	20358474 2475 201673194 221029457 509.717757465373 599.48904688309 73 21 21 1533 32193
946	20360949 2512 201645509 220968838 509.608017226329 598.914511786032 74 21 21 1554 32634
947	20363461 2676 201970486 220912489 510.713907242061 598.679098237731 79 21 21 1659 34839
948	20366137 3387 201738583 220945902 509.974601255991 598.826407585949 100 21 21 2100 44100
949	20369524 2374 201984926 221028097 510.749802739077 599.449957331806 70 21 21 1470 30870
950	20371898 3050 201805399 221028115 510.202327902496 599.452133702675 90 21 21 1890 39690
951	20374948 2881 201785226 221038495 510.137920962479 599.677828614224 85 21 21 1785 37485
952	20377829 2301 201849520 220866716 510.33913187927 598.382290393949 68 21 21 1428 29988
953	20380130 2610 201813736 220856210 510.229142877265 598.276343402687 77 21 21 1617 33957
954	20382740 2511 201669443 221005875 509.705299792263 599.082444173933 74 21 21 1554 32634
955	20385251 2373 201821840 220873701 510.254751640792 598.436536104442 70 21 21 1470 30870
956	20387624 2705 201743196 221052039 509.993050230043 599.81310607181 80 21 21 1680 35280
957	20390329 2650 201860669 221007083 510.376730445153 599.090410433416 78 21 21 1638 34398
958	20392979 2480 201688042 221035321 509.780465567627 599.640514767182 73 21 21 1533 32193
959	20395459 2609 201762372 220838893 510.053648621768 598.045502898164 77 21 21 1617 33957
960	20398068 2201 201890812 220873303 510.489573191835 598.432386873576 65 21 21 1365 28665
961	20400269 2984 201588766 221046135 509.392922215438 599.755139847684 88 21 21 1848 38808
962	20403253 2610 201957903 221025618 510.679933782842 599.307417072487 77 21 21 1617 33957
963	20405863 2608 201672588 221032288 509.716670596771 599.595217041379 77 21 21 1617 33957
964	20408471 2541 201792228 220864174 510.162838706626 598.356514463528 75 21 21 1575 33075
965	20411012 3054 201543765 221040630 509.20491983567 599.700035134065 90 22 22 1980 43560
966	20414066 3118 201751798 221068430 510.02109041766 599.981811873439 92 21 21 1932 40572
967	20417184 2508 201958803 221017836 510.681996429316 599.176680728243 74 21 21 1554 32634
968	20419692 2946 201633508 221028645 509.558772072239 599.471405578144 87 21 21 1827 38367
969	20422638 2914 202083428 221024509 510.999322211894 599.278749613587 86 21 21 1806 37926
970	20425552 3189 201750542 221024774 510.016640343815 599.284731363379 94 21 21 1974 41454
971	20428741 2754 202118872 220996114 511.131002135084 599.030796528734 81 21 21 1701 35721
972	20431495 2372 201743159 221062673 509.992730671808 599.920092862432 70 21 21 1470 30870
973	20433867 3211 201548040 221016343 509.223738595286 599.162444182725 95 21 21 1995 41895
974	20437078 2743 201869618 220986653 510.412191465599 598.987758072666 81 21 21 1701 35721
975	20439821 2846 201771728 220840712 510.085436835106 598.063472734397 84 21 21 1764 37044
976	20442667 2773 201914542 221019354 510.564012130045 599.193856169839 82 21 21 1722 36162
977	20445440 2777 201661942 220834067 509.677428313289 598.003087495074 82 21 21 1722 36162
978	20448217 2273 201639727 221033596 509.582521559762 599.612998869204 67 21 21 1407 29547
979	20450490 2950 201545943 220999871 509.214895276805 599.049525484282 87 21 21 1827 38367
980	20453440 2478 201718479 221045926 509.897496597367 599.753436953744 73 21 21 1533 32193
981	20455918 3046 201778110 221022911 510.110622924097 599.246774749113 90 22 22 1980 43560
982	20458964 2338 202043056 220931579 510.887658845 598.765496110764 69 21 21 1449 30429
983	20461302 3191 201760508 221066173 510.046246412246 599.956368576504 94 21 21 1974 41454
984	20464493 2701 201812648 221055725 510.226002905562 599.852340163707 80 21 21 1680 35280
985	20467194 2668 201624122 221027675 509.529805092169 599.405884658742 79 21 21 1659 34839
986	20469862 2436 201610961 221021766 509.480561205125 599.227283156538 72 22 22 1584 34848
987	20472298 2612 201711256 221028047 509.868630196128 599.445468515274 77 21 21 1617 33957
988	20474910 2407 201817157 221013471 510.240442825323 599.136132076724 71 21 21 1491 31311
989	20477317 2611 201639038 221029635 509.579950312842 599.504337937383 77 21 21 1617 33957
990	20479928 2648 201580619 221016585 509.362989078109 599.165346418303 78 21 21 1638 34398
991	20482576 2366 201740191 220822070 509.98066441251 597.908125878717 70 21 21 1470 30870
992	20484942 2773 201985067 221009072 510.750170834621 599.103552646213 82 21 21 1722 36162
993	20487715 2577 202022082 220943342 510.835169114141 598.814983261723 76 21 21 1596 33516
994	20490292 2608 201834437 220855369 510.292531734309 598.267234095792 77 21 21 1617 33957
995	20492900 2611 201781271 220871037 510.123555635546 598.421834741174 77 21 21 1617 33957
996	20495511 2645 201658678 221052157 509.666299130932 599.814103114547 78 21 21 1638 34398
997	20498156 2340 201569498 220896263 509.317306126172 598.589174079362 69 21 21 1449 30429
998	20500496 2782 202023116 221026658 510.837791800693 599.343638739602 82 21 21 1722 36162
999	20503278 2978 201816520 220854998 510.238397802053 598.263127952302 88 21 21 1848 38808
1036	20506256 1620 201848609 220862063 510.336449777321 598.336449777321 45 342 386 16380 5969910
1171	20507876 35 202195824 202195824 511.351813551021 511.351813551021 1 10 10 10 100
1362	20507911 1620 201989862 220930467 510.760906378909 598.760906378909 45 479 523 22545 11302635
1515	20509531 34 202128259 202128259 511.164144090763 511.164144090763 1 9 9 9 81
1581	20509565 1656 201718937 221060593 509.899561596179 599.899561596179 46 655 700 31165 21122395

