file 106125270 1533464915                                       
version 2
run General-3-20180805-11:40:35-26307
attr configname General
attr datetime 20180805-11:40:35
attr experiment General
attr inifile floodsub.ini
attr iterationvars $0=5000
attr iterationvarsf 5000-
attr measurement $0=5000
attr network sharding.FloodSubNetwork
attr processid 26307
attr repetition 0
attr replication #0
attr resultdir results-floodsub
attr runnumber 3
attr seedset 3
param *Network.nodeCount 5000
param *Network.gossipRate 10.0Hz
param *Network.nodes[*].source.active true
param *Network.nodes[*].source.startTime 20s
param *Network.nodes[*].source.stopTime 580s
param *Network.nodes[*].lazyNotifier.notificationInterval 0.1s
param *Network.nodes[*].missingTracker.waitTime 1s
param *Network.nodes[*].connectionManager.numRandomNeighbors 5
param *Network.nodes[*].connectionManager.numNearNeighbors 5
param *Network.nodes[*].connectionManager.passiveListSize 20
param *Network.nodes[*].connectionManager.contactNodes "\"0 1 2\""
param *Network.nodes[*].connectionManager.activeHeartbeatInterval 2.0
param *Network.nodes[*].connectionManager.joinTTL 1
param *Network.nodes[*].connectionManager.forwardJoinTTL 1
param *Network.nodes[*].connectionManager.shuffleInterval 2.0
param *Network.nodes[*].connectionManager.activeShufflingSize 5
param *Network.nodes[*].connectionManager.passiveShufflingSize 5
param *Network.nodes[*].connectionManager.shuffleTTL 1

vector 0 FloodSubNetwork.nodes[2682].connectionManager passiveListUpdate:vector ETV
vector 1 FloodSubNetwork.nodes[2401].connectionManager passiveListUpdate:vector ETV
vector 2 FloodSubNetwork.nodes[382].connectionManager passiveListUpdate:vector ETV
vector 3 FloodSubNetwork.nodes[1625].connectionManager passiveListUpdate:vector ETV
vector 4 FloodSubNetwork.nodes[1181].connectionManager passiveListUpdate:vector ETV
vector 5 FloodSubNetwork.nodes[3560].connectionManager passiveListUpdate:vector ETV
vector 6 FloodSubNetwork.nodes[1311].connectionManager passiveListUpdate:vector ETV
vector 7 FloodSubNetwork.nodes[4417].connectionManager passiveListUpdate:vector ETV
vector 8 FloodSubNetwork.nodes[2460].connectionManager passiveListUpdate:vector ETV
vector 9 FloodSubNetwork.nodes[186].connectionManager passiveListUpdate:vector ETV
vector 10 FloodSubNetwork.nodes[424].connectionManager passiveListUpdate:vector ETV
vector 11 FloodSubNetwork.nodes[4355].connectionManager passiveListUpdate:vector ETV
vector 12 FloodSubNetwork.nodes[756].connectionManager passiveListUpdate:vector ETV
vector 13 FloodSubNetwork.nodes[1283].connectionManager passiveListUpdate:vector ETV
vector 14 FloodSubNetwork.nodes[2207].connectionManager passiveListUpdate:vector ETV
vector 15 FloodSubNetwork.nodes[4316].connectionManager passiveListUpdate:vector ETV
vector 16 FloodSubNetwork.nodes[1649].connectionManager passiveListUpdate:vector ETV
vector 17 FloodSubNetwork.nodes[3327].connectionManager passiveListUpdate:vector ETV
vector 18 FloodSubNetwork.nodes[2950].connectionManager passiveListUpdate:vector ETV
vector 19 FloodSubNetwork.nodes[705].connectionManager passiveListUpdate:vector ETV
vector 20 FloodSubNetwork.nodes[4715].connectionManager passiveListUpdate:vector ETV
vector 21 FloodSubNetwork.nodes[244].connectionManager passiveListUpdate:vector ETV
vector 22 FloodSubNetwork.nodes[3115].connectionManager passiveListUpdate:vector ETV
vector 23 FloodSubNetwork.nodes[4509].connectionManager passiveListUpdate:vector ETV
vector 24 FloodSubNetwork.nodes[4745].connectionManager passiveListUpdate:vector ETV
vector 25 FloodSubNetwork.nodes[336].connectionManager passiveListUpdate:vector ETV
vector 26 FloodSubNetwork.nodes[4862].connectionManager passiveListUpdate:vector ETV
vector 27 FloodSubNetwork.nodes[663].connectionManager passiveListUpdate:vector ETV
vector 28 FloodSubNetwork.nodes[3477].connectionManager passiveListUpdate:vector ETV
vector 29 FloodSubNetwork.nodes[2122].connectionManager passiveListUpdate:vector ETV
vector 30 FloodSubNetwork.nodes[4207].connectionManager passiveListUpdate:vector ETV
vector 31 FloodSubNetwork.nodes[2765].connectionManager passiveListUpdate:vector ETV
vector 32 FloodSubNetwork.nodes[599].connectionManager passiveListUpdate:vector ETV
vector 33 FloodSubNetwork.nodes[1667].connectionManager passiveListUpdate:vector ETV
vector 34 FloodSubNetwork.nodes[3783].connectionManager passiveListUpdate:vector ETV
vector 35 FloodSubNetwork.nodes[1371].connectionManager passiveListUpdate:vector ETV
vector 36 FloodSubNetwork.nodes[247].connectionManager passiveListUpdate:vector ETV
vector 37 FloodSubNetwork.nodes[551].connectionManager passiveListUpdate:vector ETV
vector 38 FloodSubNetwork.nodes[4840].connectionManager passiveListUpdate:vector ETV
vector 39 FloodSubNetwork.nodes[555].connectionManager passiveListUpdate:vector ETV
vector 40 FloodSubNetwork.nodes[1591].connectionManager passiveListUpdate:vector ETV
vector 41 FloodSubNetwork.nodes[4540].connectionManager passiveListUpdate:vector ETV
vector 42 FloodSubNetwork.nodes[707].connectionManager passiveListUpdate:vector ETV
vector 43 FloodSubNetwork.nodes[8].connectionManager passiveListUpdate:vector ETV
vector 44 FloodSubNetwork.nodes[2329].connectionManager passiveListUpdate:vector ETV
vector 45 FloodSubNetwork.nodes[1169].connectionManager passiveListUpdate:vector ETV
vector 46 FloodSubNetwork.nodes[4830].connectionManager passiveListUpdate:vector ETV
vector 47 FloodSubNetwork.nodes[2931].connectionManager passiveListUpdate:vector ETV
vector 48 FloodSubNetwork.nodes[2875].connectionManager passiveListUpdate:vector ETV
vector 49 FloodSubNetwork.nodes[644].connectionManager passiveListUpdate:vector ETV
vector 50 FloodSubNetwork.nodes[2156].connectionManager passiveListUpdate:vector ETV
vector 51 FloodSubNetwork.nodes[2391].connectionManager passiveListUpdate:vector ETV
vector 52 FloodSubNetwork.nodes[330].connectionManager passiveListUpdate:vector ETV
vector 53 FloodSubNetwork.nodes[313].connectionManager passiveListUpdate:vector ETV
vector 54 FloodSubNetwork.nodes[4365].connectionManager passiveListUpdate:vector ETV
vector 55 FloodSubNetwork.nodes[994].connectionManager passiveListUpdate:vector ETV
vector 56 FloodSubNetwork.nodes[508].connectionManager passiveListUpdate:vector ETV
vector 57 FloodSubNetwork.nodes[3710].connectionManager passiveListUpdate:vector ETV
vector 58 FloodSubNetwork.nodes[3464].connectionManager passiveListUpdate:vector ETV
vector 59 FloodSubNetwork.nodes[1707].connectionManager passiveListUpdate:vector ETV
vector 60 FloodSubNetwork.nodes[1156].connectionManager passiveListUpdate:vector ETV
vector 61 FloodSubNetwork.nodes[6].connectionManager passiveListUpdate:vector ETV
vector 62 FloodSubNetwork.nodes[2217].connectionManager passiveListUpdate:vector ETV
vector 63 FloodSubNetwork.nodes[1845].connectionManager passiveListUpdate:vector ETV
vector 64 FloodSubNetwork.nodes[1508].connectionManager passiveListUpdate:vector ETV
vector 65 FloodSubNetwork.nodes[3254].connectionManager passiveListUpdate:vector ETV
vector 66 FloodSubNetwork.nodes[3009].connectionManager passiveListUpdate:vector ETV
vector 67 FloodSubNetwork.nodes[2580].connectionManager passiveListUpdate:vector ETV
vector 68 FloodSubNetwork.nodes[10].connectionManager passiveListUpdate:vector ETV
vector 69 FloodSubNetwork.nodes[1144].connectionManager passiveListUpdate:vector ETV
vector 70 FloodSubNetwork.nodes[2340].connectionManager passiveListUpdate:vector ETV
vector 71 FloodSubNetwork.nodes[4842].connectionManager passiveListUpdate:vector ETV
vector 72 FloodSubNetwork.nodes[1304].connectionManager passiveListUpdate:vector ETV
vector 73 FloodSubNetwork.nodes[1058].connectionManager passiveListUpdate:vector ETV
vector 74 FloodSubNetwork.nodes[3294].connectionManager passiveListUpdate:vector ETV
vector 75 FloodSubNetwork.nodes[4326].connectionManager passiveListUpdate:vector ETV
vector 76 FloodSubNetwork.nodes[4550].connectionManager passiveListUpdate:vector ETV
vector 77 FloodSubNetwork.nodes[2106].connectionManager passiveListUpdate:vector ETV
vector 78 FloodSubNetwork.nodes[3812].connectionManager passiveListUpdate:vector ETV
vector 79 FloodSubNetwork.nodes[129].connectionManager passiveListUpdate:vector ETV
vector 80 FloodSubNetwork.nodes[4884].connectionManager passiveListUpdate:vector ETV
vector 81 FloodSubNetwork.nodes[4427].connectionManager passiveListUpdate:vector ETV
vector 82 FloodSubNetwork.nodes[4966].connectionManager passiveListUpdate:vector ETV
vector 83 FloodSubNetwork.nodes[3879].connectionManager passiveListUpdate:vector ETV
vector 84 FloodSubNetwork.nodes[792].connectionManager passiveListUpdate:vector ETV
vector 85 FloodSubNetwork.nodes[1664].connectionManager passiveListUpdate:vector ETV
vector 86 FloodSubNetwork.nodes[4268].connectionManager passiveListUpdate:vector ETV
vector 87 FloodSubNetwork.nodes[1784].connectionManager passiveListUpdate:vector ETV
vector 88 FloodSubNetwork.nodes[1090].connectionManager passiveListUpdate:vector ETV
vector 89 FloodSubNetwork.nodes[1600].connectionManager passiveListUpdate:vector ETV
vector 90 FloodSubNetwork.nodes[4163].connectionManager passiveListUpdate:vector ETV
vector 91 FloodSubNetwork.nodes[4073].connectionManager passiveListUpdate:vector ETV
vector 92 FloodSubNetwork.nodes[3238].connectionManager passiveListUpdate:vector ETV
vector 93 FloodSubNetwork.nodes[1879].connectionManager passiveListUpdate:vector ETV
vector 94 FloodSubNetwork.nodes[4395].connectionManager passiveListUpdate:vector ETV
vector 95 FloodSubNetwork.nodes[203].connectionManager passiveListUpdate:vector ETV
vector 96 FloodSubNetwork.nodes[459].connectionManager passiveListUpdate:vector ETV
vector 97 FloodSubNetwork.nodes[2407].connectionManager passiveListUpdate:vector ETV
vector 98 FloodSubNetwork.nodes[2947].connectionManager passiveListUpdate:vector ETV
vector 99 FloodSubNetwork.nodes[2689].connectionManager passiveListUpdate:vector ETV
vector 100 FloodSubNetwork.nodes[957].connectionManager passiveListUpdate:vector ETV
vector 101 FloodSubNetwork.nodes[4656].connectionManager passiveListUpdate:vector ETV
vector 102 FloodSubNetwork.nodes[2427].connectionManager passiveListUpdate:vector ETV
vector 103 FloodSubNetwork.nodes[3128].connectionManager passiveListUpdate:vector ETV
vector 104 FloodSubNetwork.nodes[2801].connectionManager passiveListUpdate:vector ETV
vector 105 FloodSubNetwork.nodes[4279].connectionManager passiveListUpdate:vector ETV
vector 106 FloodSubNetwork.nodes[3957].connectionManager passiveListUpdate:vector ETV
vector 107 FloodSubNetwork.nodes[4641].connectionManager passiveListUpdate:vector ETV
vector 108 FloodSubNetwork.nodes[4577].connectionManager passiveListUpdate:vector ETV
vector 109 FloodSubNetwork.nodes[1682].connectionManager passiveListUpdate:vector ETV
vector 110 FloodSubNetwork.nodes[1584].connectionManager passiveListUpdate:vector ETV
vector 111 FloodSubNetwork.nodes[2472].connectionManager passiveListUpdate:vector ETV
vector 112 FloodSubNetwork.nodes[1060].connectionManager passiveListUpdate:vector ETV
vector 113 FloodSubNetwork.nodes[4837].connectionManager passiveListUpdate:vector ETV
vector 114 FloodSubNetwork.nodes[1285].connectionManager passiveListUpdate:vector ETV
vector 115 FloodSubNetwork.nodes[1626].connectionManager passiveListUpdate:vector ETV
vector 116 FloodSubNetwork.nodes[2380].connectionManager passiveListUpdate:vector ETV
vector 117 FloodSubNetwork.nodes[3669].connectionManager passiveListUpdate:vector ETV
vector 118 FloodSubNetwork.nodes[3614].connectionManager passiveListUpdate:vector ETV
vector 119 FloodSubNetwork.nodes[1806].connectionManager passiveListUpdate:vector ETV
vector 120 FloodSubNetwork.nodes[685].connectionManager passiveListUpdate:vector ETV
vector 121 FloodSubNetwork.nodes[3315].connectionManager passiveListUpdate:vector ETV
vector 122 FloodSubNetwork.nodes[1788].connectionManager passiveListUpdate:vector ETV
vector 123 FloodSubNetwork.nodes[227].connectionManager passiveListUpdate:vector ETV
vector 124 FloodSubNetwork.nodes[3384].connectionManager passiveListUpdate:vector ETV
vector 125 FloodSubNetwork.nodes[1422].connectionManager passiveListUpdate:vector ETV
vector 126 FloodSubNetwork.nodes[2011].connectionManager passiveListUpdate:vector ETV
vector 127 FloodSubNetwork.nodes[4429].connectionManager passiveListUpdate:vector ETV
vector 128 FloodSubNetwork.nodes[2597].connectionManager passiveListUpdate:vector ETV
vector 129 FloodSubNetwork.nodes[4704].connectionManager passiveListUpdate:vector ETV
vector 130 FloodSubNetwork.nodes[1498].connectionManager passiveListUpdate:vector ETV
vector 131 FloodSubNetwork.nodes[3175].connectionManager passiveListUpdate:vector ETV
vector 132 FloodSubNetwork.nodes[3563].connectionManager passiveListUpdate:vector ETV
vector 133 FloodSubNetwork.nodes[4339].connectionManager passiveListUpdate:vector ETV
vector 134 FloodSubNetwork.nodes[1190].connectionManager passiveListUpdate:vector ETV
vector 135 FloodSubNetwork.nodes[221].connectionManager passiveListUpdate:vector ETV
vector 136 FloodSubNetwork.nodes[4719].connectionManager passiveListUpdate:vector ETV
vector 137 FloodSubNetwork.nodes[2910].connectionManager passiveListUpdate:vector ETV
vector 138 FloodSubNetwork.nodes[2868].connectionManager passiveListUpdate:vector ETV
vector 139 FloodSubNetwork.nodes[681].connectionManager passiveListUpdate:vector ETV
vector 140 FloodSubNetwork.nodes[143].connectionManager passiveListUpdate:vector ETV
vector 141 FloodSubNetwork.nodes[2860].connectionManager passiveListUpdate:vector ETV
vector 142 FloodSubNetwork.nodes[2867].connectionManager passiveListUpdate:vector ETV
vector 143 FloodSubNetwork.nodes[4468].connectionManager passiveListUpdate:vector ETV
vector 144 FloodSubNetwork.nodes[4050].connectionManager passiveListUpdate:vector ETV
vector 145 FloodSubNetwork.nodes[3528].connectionManager passiveListUpdate:vector ETV
vector 146 FloodSubNetwork.nodes[547].connectionManager passiveListUpdate:vector ETV
vector 147 FloodSubNetwork.nodes[2123].connectionManager passiveListUpdate:vector ETV
vector 148 FloodSubNetwork.nodes[2613].connectionManager passiveListUpdate:vector ETV
vector 149 FloodSubNetwork.nodes[2644].connectionManager passiveListUpdate:vector ETV
vector 150 FloodSubNetwork.nodes[3284].connectionManager passiveListUpdate:vector ETV
vector 151 FloodSubNetwork.nodes[69].connectionManager passiveListUpdate:vector ETV
vector 152 FloodSubNetwork.nodes[2840].connectionManager passiveListUpdate:vector ETV
vector 153 FloodSubNetwork.nodes[1556].connectionManager passiveListUpdate:vector ETV
vector 154 FloodSubNetwork.nodes[1878].connectionManager passiveListUpdate:vector ETV
vector 155 FloodSubNetwork.nodes[398].connectionManager passiveListUpdate:vector ETV
vector 156 FloodSubNetwork.nodes[215].connectionManager passiveListUpdate:vector ETV
vector 157 FloodSubNetwork.nodes[4588].connectionManager passiveListUpdate:vector ETV
vector 158 FloodSubNetwork.nodes[4407].connectionManager passiveListUpdate:vector ETV
vector 159 FloodSubNetwork.nodes[999].connectionManager passiveListUpdate:vector ETV
vector 160 FloodSubNetwork.nodes[2148].connectionManager passiveListUpdate:vector ETV
vector 161 FloodSubNetwork.nodes[2020].connectionManager passiveListUpdate:vector ETV
vector 162 FloodSubNetwork.nodes[915].connectionManager passiveListUpdate:vector ETV
vector 163 FloodSubNetwork.nodes[3249].connectionManager passiveListUpdate:vector ETV
vector 164 FloodSubNetwork.nodes[1099].connectionManager passiveListUpdate:vector ETV
vector 165 FloodSubNetwork.nodes[944].connectionManager passiveListUpdate:vector ETV
vector 166 FloodSubNetwork.nodes[2285].connectionManager passiveListUpdate:vector ETV
vector 167 FloodSubNetwork.nodes[2676].connectionManager passiveListUpdate:vector ETV
vector 168 FloodSubNetwork.nodes[1303].connectionManager passiveListUpdate:vector ETV
vector 169 FloodSubNetwork.nodes[961].connectionManager passiveListUpdate:vector ETV
vector 170 FloodSubNetwork.nodes[1809].connectionManager passiveListUpdate:vector ETV
vector 171 FloodSubNetwork.nodes[51].connectionManager passiveListUpdate:vector ETV
vector 172 FloodSubNetwork.nodes[4816].connectionManager passiveListUpdate:vector ETV
vector 173 FloodSubNetwork.nodes[1994].connectionManager passiveListUpdate:vector ETV
vector 174 FloodSubNetwork.nodes[3432].connectionManager passiveListUpdate:vector ETV
vector 175 FloodSubNetwork.nodes[3398].connectionManager passiveListUpdate:vector ETV
vector 176 FloodSubNetwork.nodes[2721].connectionManager passiveListUpdate:vector ETV
vector 177 FloodSubNetwork.nodes[3874].connectionManager passiveListUpdate:vector ETV
vector 178 FloodSubNetwork.nodes[4401].connectionManager passiveListUpdate:vector ETV
vector 179 FloodSubNetwork.nodes[1751].connectionManager passiveListUpdate:vector ETV
vector 180 FloodSubNetwork.nodes[1677].connectionManager passiveListUpdate:vector ETV
vector 181 FloodSubNetwork.nodes[82].connectionManager passiveListUpdate:vector ETV
vector 182 FloodSubNetwork.nodes[4479].connectionManager passiveListUpdate:vector ETV
vector 183 FloodSubNetwork.nodes[218].connectionManager passiveListUpdate:vector ETV
vector 184 FloodSubNetwork.nodes[2013].connectionManager passiveListUpdate:vector ETV
vector 185 FloodSubNetwork.nodes[1597].connectionManager passiveListUpdate:vector ETV
vector 186 FloodSubNetwork.nodes[214].connectionManager passiveListUpdate:vector ETV
vector 187 FloodSubNetwork.nodes[3756].connectionManager passiveListUpdate:vector ETV
vector 188 FloodSubNetwork.nodes[187].connectionManager passiveListUpdate:vector ETV
vector 189 FloodSubNetwork.nodes[2229].connectionManager passiveListUpdate:vector ETV
vector 190 FloodSubNetwork.nodes[1964].connectionManager passiveListUpdate:vector ETV
vector 191 FloodSubNetwork.nodes[1480].connectionManager passiveListUpdate:vector ETV
vector 192 FloodSubNetwork.nodes[2858].connectionManager passiveListUpdate:vector ETV
vector 193 FloodSubNetwork.nodes[352].connectionManager passiveListUpdate:vector ETV
vector 194 FloodSubNetwork.nodes[2219].connectionManager passiveListUpdate:vector ETV
vector 195 FloodSubNetwork.nodes[2209].connectionManager passiveListUpdate:vector ETV
vector 196 FloodSubNetwork.nodes[1871].connectionManager passiveListUpdate:vector ETV
vector 197 FloodSubNetwork.nodes[4457].connectionManager passiveListUpdate:vector ETV
vector 198 FloodSubNetwork.nodes[4806].connectionManager passiveListUpdate:vector ETV
vector 199 FloodSubNetwork.nodes[3724].connectionManager passiveListUpdate:vector ETV
vector 200 FloodSubNetwork.nodes[2923].connectionManager passiveListUpdate:vector ETV
vector 201 FloodSubNetwork.nodes[684].connectionManager passiveListUpdate:vector ETV
vector 202 FloodSubNetwork.nodes[201].connectionManager passiveListUpdate:vector ETV
vector 203 FloodSubNetwork.nodes[2065].connectionManager passiveListUpdate:vector ETV
vector 204 FloodSubNetwork.nodes[3681].connectionManager passiveListUpdate:vector ETV
vector 205 FloodSubNetwork.nodes[4708].connectionManager passiveListUpdate:vector ETV
vector 206 FloodSubNetwork.nodes[2912].connectionManager passiveListUpdate:vector ETV
vector 207 FloodSubNetwork.nodes[2140].connectionManager passiveListUpdate:vector ETV
vector 208 FloodSubNetwork.nodes[1238].connectionManager passiveListUpdate:vector ETV
vector 209 FloodSubNetwork.nodes[2484].connectionManager passiveListUpdate:vector ETV
vector 210 FloodSubNetwork.nodes[3186].connectionManager passiveListUpdate:vector ETV
vector 211 FloodSubNetwork.nodes[2624].connectionManager passiveListUpdate:vector ETV
vector 212 FloodSubNetwork.nodes[2485].connectionManager passiveListUpdate:vector ETV
vector 213 FloodSubNetwork.nodes[3391].connectionManager passiveListUpdate:vector ETV
vector 214 FloodSubNetwork.nodes[563].connectionManager passiveListUpdate:vector ETV
vector 215 FloodSubNetwork.nodes[2758].connectionManager passiveListUpdate:vector ETV
vector 216 FloodSubNetwork.nodes[2575].connectionManager passiveListUpdate:vector ETV
vector 217 FloodSubNetwork.nodes[633].connectionManager passiveListUpdate:vector ETV
vector 218 FloodSubNetwork.nodes[847].connectionManager passiveListUpdate:vector ETV
vector 219 FloodSubNetwork.nodes[3795].connectionManager passiveListUpdate:vector ETV
vector 220 FloodSubNetwork.nodes[2296].connectionManager passiveListUpdate:vector ETV
vector 221 FloodSubNetwork.nodes[584].connectionManager passiveListUpdate:vector ETV
vector 222 FloodSubNetwork.nodes[2278].connectionManager passiveListUpdate:vector ETV
vector 223 FloodSubNetwork.nodes[4694].connectionManager passiveListUpdate:vector ETV
vector 224 FloodSubNetwork.nodes[1996].connectionManager passiveListUpdate:vector ETV
vector 225 FloodSubNetwork.nodes[2288].connectionManager passiveListUpdate:vector ETV
vector 226 FloodSubNetwork.nodes[529].connectionManager passiveListUpdate:vector ETV
vector 227 FloodSubNetwork.nodes[3105].connectionManager passiveListUpdate:vector ETV
vector 228 FloodSubNetwork.nodes[4226].connectionManager passiveListUpdate:vector ETV
vector 229 FloodSubNetwork.nodes[265].connectionManager passiveListUpdate:vector ETV
vector 230 FloodSubNetwork.nodes[1766].connectionManager passiveListUpdate:vector ETV
vector 231 FloodSubNetwork.nodes[119].connectionManager passiveListUpdate:vector ETV
vector 232 FloodSubNetwork.nodes[1948].connectionManager passiveListUpdate:vector ETV
vector 233 FloodSubNetwork.nodes[3986].connectionManager passiveListUpdate:vector ETV
vector 234 FloodSubNetwork.nodes[3770].connectionManager passiveListUpdate:vector ETV
vector 235 FloodSubNetwork.nodes[3221].connectionManager passiveListUpdate:vector ETV
vector 236 FloodSubNetwork.nodes[731].connectionManager passiveListUpdate:vector ETV
vector 237 FloodSubNetwork.nodes[3689].connectionManager passiveListUpdate:vector ETV
vector 238 FloodSubNetwork.nodes[1420].connectionManager passiveListUpdate:vector ETV
vector 239 FloodSubNetwork.nodes[4106].connectionManager passiveListUpdate:vector ETV
vector 240 FloodSubNetwork.nodes[4937].connectionManager passiveListUpdate:vector ETV
vector 241 FloodSubNetwork.nodes[4855].connectionManager passiveListUpdate:vector ETV
vector 242 FloodSubNetwork.nodes[1225].connectionManager passiveListUpdate:vector ETV
vector 243 FloodSubNetwork.nodes[2239].connectionManager passiveListUpdate:vector ETV
vector 244 FloodSubNetwork.nodes[3623].connectionManager passiveListUpdate:vector ETV
vector 245 FloodSubNetwork.nodes[839].connectionManager passiveListUpdate:vector ETV
vector 246 FloodSubNetwork.nodes[3455].connectionManager passiveListUpdate:vector ETV
vector 247 FloodSubNetwork.nodes[2112].connectionManager passiveListUpdate:vector ETV
vector 248 FloodSubNetwork.nodes[1408].connectionManager passiveListUpdate:vector ETV
vector 249 FloodSubNetwork.nodes[3014].connectionManager passiveListUpdate:vector ETV
vector 250 FloodSubNetwork.nodes[3067].connectionManager passiveListUpdate:vector ETV
vector 251 FloodSubNetwork.nodes[238].connectionManager passiveListUpdate:vector ETV
vector 252 FloodSubNetwork.nodes[3299].connectionManager passiveListUpdate:vector ETV
vector 253 FloodSubNetwork.nodes[370].connectionManager passiveListUpdate:vector ETV
vector 254 FloodSubNetwork.nodes[1017].connectionManager passiveListUpdate:vector ETV
vector 255 FloodSubNetwork.nodes[2070].connectionManager passiveListUpdate:vector ETV
vector 256 FloodSubNetwork.nodes[3637].connectionManager passiveListUpdate:vector ETV
vector 257 FloodSubNetwork.nodes[3675].connectionManager passiveListUpdate:vector ETV
vector 258 FloodSubNetwork.nodes[4551].connectionManager passiveListUpdate:vector ETV
vector 259 FloodSubNetwork.nodes[1951].connectionManager passiveListUpdate:vector ETV
vector 260 FloodSubNetwork.nodes[642].connectionManager passiveListUpdate:vector ETV
vector 261 FloodSubNetwork.nodes[4068].connectionManager passiveListUpdate:vector ETV
vector 262 FloodSubNetwork.nodes[846].connectionManager passiveListUpdate:vector ETV
vector 263 FloodSubNetwork.nodes[3625].connectionManager passiveListUpdate:vector ETV
vector 264 FloodSubNetwork.nodes[453].connectionManager passiveListUpdate:vector ETV
vector 265 FloodSubNetwork.nodes[1037].connectionManager passiveListUpdate:vector ETV
vector 266 FloodSubNetwork.nodes[3741].connectionManager passiveListUpdate:vector ETV
vector 267 FloodSubNetwork.nodes[4324].connectionManager passiveListUpdate:vector ETV
vector 268 FloodSubNetwork.nodes[3360].connectionManager passiveListUpdate:vector ETV
vector 269 FloodSubNetwork.nodes[3414].connectionManager passiveListUpdate:vector ETV
vector 270 FloodSubNetwork.nodes[2836].connectionManager passiveListUpdate:vector ETV
vector 271 FloodSubNetwork.nodes[2006].connectionManager passiveListUpdate:vector ETV
vector 272 FloodSubNetwork.nodes[1553].connectionManager passiveListUpdate:vector ETV
vector 273 FloodSubNetwork.nodes[1450].connectionManager passiveListUpdate:vector ETV
vector 274 FloodSubNetwork.nodes[3330].connectionManager passiveListUpdate:vector ETV
vector 275 FloodSubNetwork.nodes[179].connectionManager passiveListUpdate:vector ETV
vector 276 FloodSubNetwork.nodes[2412].connectionManager passiveListUpdate:vector ETV
vector 277 FloodSubNetwork.nodes[2927].connectionManager passiveListUpdate:vector ETV
vector 278 FloodSubNetwork.nodes[1646].connectionManager passiveListUpdate:vector ETV
vector 279 FloodSubNetwork.nodes[4907].connectionManager passiveListUpdate:vector ETV
vector 280 FloodSubNetwork.nodes[3059].connectionManager passiveListUpdate:vector ETV
vector 281 FloodSubNetwork.nodes[2729].connectionManager passiveListUpdate:vector ETV
vector 282 FloodSubNetwork.nodes[4838].connectionManager passiveListUpdate:vector ETV
vector 283 FloodSubNetwork.nodes[4437].connectionManager passiveListUpdate:vector ETV
vector 284 FloodSubNetwork.nodes[1884].connectionManager passiveListUpdate:vector ETV
vector 285 FloodSubNetwork.nodes[76].connectionManager passiveListUpdate:vector ETV
vector 286 FloodSubNetwork.nodes[4347].connectionManager passiveListUpdate:vector ETV
vector 287 FloodSubNetwork.nodes[1357].connectionManager passiveListUpdate:vector ETV
vector 288 FloodSubNetwork.nodes[4125].connectionManager passiveListUpdate:vector ETV
vector 289 FloodSubNetwork.nodes[3676].connectionManager passiveListUpdate:vector ETV
vector 290 FloodSubNetwork.nodes[200].connectionManager passiveListUpdate:vector ETV
vector 291 FloodSubNetwork.nodes[3373].connectionManager passiveListUpdate:vector ETV
vector 292 FloodSubNetwork.nodes[3905].connectionManager passiveListUpdate:vector ETV
vector 293 FloodSubNetwork.nodes[1483].connectionManager passiveListUpdate:vector ETV
vector 294 FloodSubNetwork.nodes[3312].connectionManager passiveListUpdate:vector ETV
vector 295 FloodSubNetwork.nodes[516].connectionManager passiveListUpdate:vector ETV
vector 296 FloodSubNetwork.nodes[4100].connectionManager passiveListUpdate:vector ETV
vector 297 FloodSubNetwork.nodes[852].connectionManager passiveListUpdate:vector ETV
vector 298 FloodSubNetwork.nodes[616].connectionManager passiveListUpdate:vector ETV
vector 299 FloodSubNetwork.nodes[4104].connectionManager passiveListUpdate:vector ETV
vector 300 FloodSubNetwork.nodes[2926].connectionManager passiveListUpdate:vector ETV
vector 301 FloodSubNetwork.nodes[1199].connectionManager passiveListUpdate:vector ETV
vector 302 FloodSubNetwork.nodes[2509].connectionManager passiveListUpdate:vector ETV
vector 303 FloodSubNetwork.nodes[4306].connectionManager passiveListUpdate:vector ETV
vector 304 FloodSubNetwork.nodes[66].connectionManager passiveListUpdate:vector ETV
vector 305 FloodSubNetwork.nodes[3431].connectionManager passiveListUpdate:vector ETV
vector 306 FloodSubNetwork.nodes[158].connectionManager passiveListUpdate:vector ETV
vector 307 FloodSubNetwork.nodes[3241].connectionManager passiveListUpdate:vector ETV
vector 308 FloodSubNetwork.nodes[1413].connectionManager passiveListUpdate:vector ETV
vector 309 FloodSubNetwork.nodes[1716].connectionManager passiveListUpdate:vector ETV
vector 310 FloodSubNetwork.nodes[3643].connectionManager passiveListUpdate:vector ETV
vector 311 FloodSubNetwork.nodes[1259].connectionManager passiveListUpdate:vector ETV
vector 312 FloodSubNetwork.nodes[1586].connectionManager passiveListUpdate:vector ETV
vector 313 FloodSubNetwork.nodes[4238].connectionManager passiveListUpdate:vector ETV
vector 314 FloodSubNetwork.nodes[242].connectionManager passiveListUpdate:vector ETV
vector 315 FloodSubNetwork.nodes[2861].connectionManager passiveListUpdate:vector ETV
vector 316 FloodSubNetwork.nodes[2271].connectionManager passiveListUpdate:vector ETV
vector 317 FloodSubNetwork.nodes[3410].connectionManager passiveListUpdate:vector ETV
vector 318 FloodSubNetwork.nodes[4900].connectionManager passiveListUpdate:vector ETV
vector 319 FloodSubNetwork.nodes[2586].connectionManager passiveListUpdate:vector ETV
vector 320 FloodSubNetwork.nodes[1249].connectionManager passiveListUpdate:vector ETV
vector 321 FloodSubNetwork.nodes[2117].connectionManager passiveListUpdate:vector ETV
vector 322 FloodSubNetwork.nodes[1204].connectionManager passiveListUpdate:vector ETV
vector 323 FloodSubNetwork.nodes[1277].connectionManager passiveListUpdate:vector ETV
vector 324 FloodSubNetwork.nodes[3378].connectionManager passiveListUpdate:vector ETV
vector 325 FloodSubNetwork.nodes[3608].connectionManager passiveListUpdate:vector ETV
vector 326 FloodSubNetwork.nodes[1315].connectionManager passiveListUpdate:vector ETV
vector 327 FloodSubNetwork.nodes[4681].connectionManager passiveListUpdate:vector ETV
vector 328 FloodSubNetwork.nodes[3864].connectionManager passiveListUpdate:vector ETV
vector 329 FloodSubNetwork.nodes[77].connectionManager passiveListUpdate:vector ETV
vector 330 FloodSubNetwork.nodes[2512].connectionManager passiveListUpdate:vector ETV
vector 331 FloodSubNetwork.nodes[1301].connectionManager passiveListUpdate:vector ETV
vector 332 FloodSubNetwork.nodes[4767].connectionManager passiveListUpdate:vector ETV
vector 333 FloodSubNetwork.nodes[3866].connectionManager passiveListUpdate:vector ETV
vector 334 FloodSubNetwork.nodes[1849].connectionManager passiveListUpdate:vector ETV
vector 335 FloodSubNetwork.nodes[874].connectionManager passiveListUpdate:vector ETV
vector 336 FloodSubNetwork.nodes[4183].connectionManager passiveListUpdate:vector ETV
vector 337 FloodSubNetwork.nodes[3318].connectionManager passiveListUpdate:vector ETV
vector 338 FloodSubNetwork.nodes[4974].connectionManager passiveListUpdate:vector ETV
vector 339 FloodSubNetwork.nodes[317].connectionManager passiveListUpdate:vector ETV
vector 340 FloodSubNetwork.nodes[4592].connectionManager passiveListUpdate:vector ETV
vector 341 FloodSubNetwork.nodes[1473].connectionManager passiveListUpdate:vector ETV
vector 342 FloodSubNetwork.nodes[3871].connectionManager passiveListUpdate:vector ETV
vector 343 FloodSubNetwork.nodes[4173].connectionManager passiveListUpdate:vector ETV
vector 344 FloodSubNetwork.nodes[1440].connectionManager passiveListUpdate:vector ETV
vector 345 FloodSubNetwork.nodes[4088].connectionManager passiveListUpdate:vector ETV
vector 346 FloodSubNetwork.nodes[38].connectionManager passiveListUpdate:vector ETV
vector 347 FloodSubNetwork.nodes[1247].connectionManager passiveListUpdate:vector ETV
vector 348 FloodSubNetwork.nodes[3696].connectionManager passiveListUpdate:vector ETV
vector 349 FloodSubNetwork.nodes[4280].connectionManager passiveListUpdate:vector ETV
vector 350 FloodSubNetwork.nodes[1908].connectionManager passiveListUpdate:vector ETV
vector 351 FloodSubNetwork.nodes[2642].connectionManager passiveListUpdate:vector ETV
vector 352 FloodSubNetwork.nodes[557].connectionManager passiveListUpdate:vector ETV
vector 353 FloodSubNetwork.nodes[3102].connectionManager passiveListUpdate:vector ETV
vector 354 FloodSubNetwork.nodes[979].connectionManager passiveListUpdate:vector ETV
vector 355 FloodSubNetwork.nodes[647].connectionManager passiveListUpdate:vector ETV
vector 356 FloodSubNetwork.nodes[2075].connectionManager passiveListUpdate:vector ETV
vector 357 FloodSubNetwork.nodes[2024].connectionManager passiveListUpdate:vector ETV
vector 358 FloodSubNetwork.nodes[1876].connectionManager passiveListUpdate:vector ETV
vector 359 FloodSubNetwork.nodes[2803].connectionManager passiveListUpdate:vector ETV
vector 360 FloodSubNetwork.nodes[1831].connectionManager passiveListUpdate:vector ETV
vector 361 FloodSubNetwork.nodes[3357].connectionManager passiveListUpdate:vector ETV
vector 362 FloodSubNetwork.nodes[3071].connectionManager passiveListUpdate:vector ETV
vector 363 FloodSubNetwork.nodes[3994].connectionManager passiveListUpdate:vector ETV
vector 364 FloodSubNetwork.nodes[1500].connectionManager passiveListUpdate:vector ETV
vector 365 FloodSubNetwork.nodes[2956].connectionManager passiveListUpdate:vector ETV
vector 366 FloodSubNetwork.nodes[4300].connectionManager passiveListUpdate:vector ETV
vector 367 FloodSubNetwork.nodes[2025].connectionManager passiveListUpdate:vector ETV
vector 368 FloodSubNetwork.nodes[420].connectionManager passiveListUpdate:vector ETV
vector 369 FloodSubNetwork.nodes[4912].connectionManager passiveListUpdate:vector ETV
vector 370 FloodSubNetwork.nodes[3997].connectionManager passiveListUpdate:vector ETV
vector 371 FloodSubNetwork.nodes[2411].connectionManager passiveListUpdate:vector ETV
vector 372 FloodSubNetwork.nodes[949].connectionManager passiveListUpdate:vector ETV
vector 373 FloodSubNetwork.nodes[1340].connectionManager passiveListUpdate:vector ETV
vector 374 FloodSubNetwork.nodes[3604].connectionManager passiveListUpdate:vector ETV
vector 375 FloodSubNetwork.nodes[1661].connectionManager passiveListUpdate:vector ETV
vector 376 FloodSubNetwork.nodes[4969].connectionManager passiveListUpdate:vector ETV
vector 377 FloodSubNetwork.nodes[2604].connectionManager passiveListUpdate:vector ETV
vector 378 FloodSubNetwork.nodes[4631].connectionManager passiveListUpdate:vector ETV
vector 379 FloodSubNetwork.nodes[3884].connectionManager passiveListUpdate:vector ETV
vector 380 FloodSubNetwork.nodes[1735].connectionManager passiveListUpdate:vector ETV
vector 381 FloodSubNetwork.nodes[2576].connectionManager passiveListUpdate:vector ETV
vector 382 FloodSubNetwork.nodes[2339].connectionManager passiveListUpdate:vector ETV
vector 383 FloodSubNetwork.nodes[2818].connectionManager passiveListUpdate:vector ETV
vector 384 FloodSubNetwork.nodes[2029].connectionManager passiveListUpdate:vector ETV
vector 385 FloodSubNetwork.nodes[4167].connectionManager passiveListUpdate:vector ETV
vector 386 FloodSubNetwork.nodes[2637].connectionManager passiveListUpdate:vector ETV
vector 387 FloodSubNetwork.nodes[3184].connectionManager passiveListUpdate:vector ETV
vector 388 FloodSubNetwork.nodes[4659].connectionManager passiveListUpdate:vector ETV
vector 389 FloodSubNetwork.nodes[1396].connectionManager passiveListUpdate:vector ETV
vector 390 FloodSubNetwork.nodes[3467].connectionManager passiveListUpdate:vector ETV
vector 391 FloodSubNetwork.nodes[368].connectionManager passiveListUpdate:vector ETV
vector 392 FloodSubNetwork.nodes[1710].connectionManager passiveListUpdate:vector ETV
vector 393 FloodSubNetwork.nodes[3519].connectionManager passiveListUpdate:vector ETV
vector 394 FloodSubNetwork.nodes[854].connectionManager passiveListUpdate:vector ETV
vector 395 FloodSubNetwork.nodes[3662].connectionManager passiveListUpdate:vector ETV
vector 396 FloodSubNetwork.nodes[2531].connectionManager passiveListUpdate:vector ETV
vector 397 FloodSubNetwork.nodes[1041].connectionManager passiveListUpdate:vector ETV
vector 398 FloodSubNetwork.nodes[4618].connectionManager passiveListUpdate:vector ETV
vector 399 FloodSubNetwork.nodes[1287].connectionManager passiveListUpdate:vector ETV
vector 400 FloodSubNetwork.nodes[1783].connectionManager passiveListUpdate:vector ETV
vector 401 FloodSubNetwork.nodes[3537].connectionManager passiveListUpdate:vector ETV
vector 402 FloodSubNetwork.nodes[4991].connectionManager passiveListUpdate:vector ETV
vector 403 FloodSubNetwork.nodes[4335].connectionManager passiveListUpdate:vector ETV
vector 404 FloodSubNetwork.nodes[1207].connectionManager passiveListUpdate:vector ETV
vector 405 FloodSubNetwork.nodes[701].connectionManager passiveListUpdate:vector ETV
vector 406 FloodSubNetwork.nodes[967].connectionManager passiveListUpdate:vector ETV
vector 407 FloodSubNetwork.nodes[2212].connectionManager passiveListUpdate:vector ETV
vector 408 FloodSubNetwork.nodes[2713].connectionManager passiveListUpdate:vector ETV
vector 409 FloodSubNetwork.nodes[1224].connectionManager passiveListUpdate:vector ETV
vector 410 FloodSubNetwork.nodes[4263].connectionManager passiveListUpdate:vector ETV
vector 411 FloodSubNetwork.nodes[4128].connectionManager passiveListUpdate:vector ETV
vector 412 FloodSubNetwork.nodes[909].connectionManager passiveListUpdate:vector ETV
vector 413 FloodSubNetwork.nodes[1470].connectionManager passiveListUpdate:vector ETV
vector 414 FloodSubNetwork.nodes[3236].connectionManager passiveListUpdate:vector ETV
vector 415 FloodSubNetwork.nodes[1563].connectionManager passiveListUpdate:vector ETV
vector 416 FloodSubNetwork.nodes[4189].connectionManager passiveListUpdate:vector ETV
vector 417 FloodSubNetwork.nodes[362].connectionManager passiveListUpdate:vector ETV
vector 418 FloodSubNetwork.nodes[135].connectionManager passiveListUpdate:vector ETV
vector 419 FloodSubNetwork.nodes[2221].connectionManager passiveListUpdate:vector ETV
vector 420 FloodSubNetwork.nodes[2817].connectionManager passiveListUpdate:vector ETV
vector 421 FloodSubNetwork.nodes[1048].connectionManager passiveListUpdate:vector ETV
vector 422 FloodSubNetwork.nodes[2205].connectionManager passiveListUpdate:vector ETV
vector 423 FloodSubNetwork.nodes[124].connectionManager passiveListUpdate:vector ETV
vector 424 FloodSubNetwork.nodes[1416].connectionManager passiveListUpdate:vector ETV
vector 425 FloodSubNetwork.nodes[197].connectionManager passiveListUpdate:vector ETV
vector 426 FloodSubNetwork.nodes[3998].connectionManager passiveListUpdate:vector ETV
vector 427 FloodSubNetwork.nodes[2647].connectionManager passiveListUpdate:vector ETV
vector 428 FloodSubNetwork.nodes[483].connectionManager passiveListUpdate:vector ETV
vector 429 FloodSubNetwork.nodes[2487].connectionManager passiveListUpdate:vector ETV
vector 430 FloodSubNetwork.nodes[1847].connectionManager passiveListUpdate:vector ETV
vector 431 FloodSubNetwork.nodes[3172].connectionManager passiveListUpdate:vector ETV
vector 432 FloodSubNetwork.nodes[2047].connectionManager passiveListUpdate:vector ETV
vector 433 FloodSubNetwork.nodes[2718].connectionManager passiveListUpdate:vector ETV
vector 434 FloodSubNetwork.nodes[4357].connectionManager passiveListUpdate:vector ETV
vector 435 FloodSubNetwork.nodes[2180].connectionManager passiveListUpdate:vector ETV
vector 436 FloodSubNetwork.nodes[100].connectionManager passiveListUpdate:vector ETV
vector 437 FloodSubNetwork.nodes[2319].connectionManager passiveListUpdate:vector ETV
vector 438 FloodSubNetwork.nodes[3336].connectionManager passiveListUpdate:vector ETV
vector 439 FloodSubNetwork.nodes[1289].connectionManager passiveListUpdate:vector ETV
vector 440 FloodSubNetwork.nodes[1731].connectionManager passiveListUpdate:vector ETV
vector 441 FloodSubNetwork.nodes[3975].connectionManager passiveListUpdate:vector ETV
vector 442 FloodSubNetwork.nodes[3597].connectionManager passiveListUpdate:vector ETV
vector 443 FloodSubNetwork.nodes[1859].connectionManager passiveListUpdate:vector ETV
vector 444 FloodSubNetwork.nodes[2951].connectionManager passiveListUpdate:vector ETV
vector 445 FloodSubNetwork.nodes[2962].connectionManager passiveListUpdate:vector ETV
vector 446 FloodSubNetwork.nodes[366].connectionManager passiveListUpdate:vector ETV
vector 447 FloodSubNetwork.nodes[2834].connectionManager passiveListUpdate:vector ETV
vector 448 FloodSubNetwork.nodes[4702].connectionManager passiveListUpdate:vector ETV
vector 449 FloodSubNetwork.nodes[1094].connectionManager passiveListUpdate:vector ETV
vector 450 FloodSubNetwork.nodes[2723].connectionManager passiveListUpdate:vector ETV
vector 451 FloodSubNetwork.nodes[3911].connectionManager passiveListUpdate:vector ETV
vector 452 FloodSubNetwork.nodes[2097].connectionManager passiveListUpdate:vector ETV
vector 453 FloodSubNetwork.nodes[1399].connectionManager passiveListUpdate:vector ETV
vector 454 FloodSubNetwork.nodes[2981].connectionManager passiveListUpdate:vector ETV
vector 455 FloodSubNetwork.nodes[1015].connectionManager passiveListUpdate:vector ETV
vector 456 FloodSubNetwork.nodes[2378].connectionManager passiveListUpdate:vector ETV
vector 457 FloodSubNetwork.nodes[4632].connectionManager passiveListUpdate:vector ETV
vector 458 FloodSubNetwork.nodes[3908].connectionManager passiveListUpdate:vector ETV
vector 459 FloodSubNetwork.nodes[1777].connectionManager passiveListUpdate:vector ETV
vector 460 FloodSubNetwork.nodes[1329].connectionManager passiveListUpdate:vector ETV
vector 461 FloodSubNetwork.nodes[2589].connectionManager passiveListUpdate:vector ETV
vector 462 FloodSubNetwork.nodes[1364].connectionManager passiveListUpdate:vector ETV
vector 463 FloodSubNetwork.nodes[740].connectionManager passiveListUpdate:vector ETV
vector 464 FloodSubNetwork.nodes[1001].connectionManager passiveListUpdate:vector ETV
vector 465 FloodSubNetwork.nodes[3351].connectionManager passiveListUpdate:vector ETV
vector 466 FloodSubNetwork.nodes[3210].connectionManager passiveListUpdate:vector ETV
vector 467 FloodSubNetwork.nodes[1055].connectionManager passiveListUpdate:vector ETV
vector 468 FloodSubNetwork.nodes[1327].connectionManager passiveListUpdate:vector ETV
vector 469 FloodSubNetwork.nodes[2104].connectionManager passiveListUpdate:vector ETV
vector 470 FloodSubNetwork.nodes[412].connectionManager passiveListUpdate:vector ETV
vector 471 FloodSubNetwork.nodes[1615].connectionManager passiveListUpdate:vector ETV
vector 472 FloodSubNetwork.nodes[3556].connectionManager passiveListUpdate:vector ETV
vector 473 FloodSubNetwork.nodes[1407].connectionManager passiveListUpdate:vector ETV
vector 474 FloodSubNetwork.nodes[4645].connectionManager passiveListUpdate:vector ETV
vector 475 FloodSubNetwork.nodes[1752].connectionManager passiveListUpdate:vector ETV
vector 476 FloodSubNetwork.nodes[796].connectionManager passiveListUpdate:vector ETV
vector 477 FloodSubNetwork.nodes[3609].connectionManager passiveListUpdate:vector ETV
vector 478 FloodSubNetwork.nodes[1982].connectionManager passiveListUpdate:vector ETV
vector 479 FloodSubNetwork.nodes[3535].connectionManager passiveListUpdate:vector ETV
vector 480 FloodSubNetwork.nodes[4972].connectionManager passiveListUpdate:vector ETV
vector 481 FloodSubNetwork.nodes[4235].connectionManager passiveListUpdate:vector ETV
vector 482 FloodSubNetwork.nodes[2539].connectionManager passiveListUpdate:vector ETV
vector 483 FloodSubNetwork.nodes[4351].connectionManager passiveListUpdate:vector ETV
vector 484 FloodSubNetwork.nodes[1484].connectionManager passiveListUpdate:vector ETV
vector 485 FloodSubNetwork.nodes[902].connectionManager passiveListUpdate:vector ETV
vector 486 FloodSubNetwork.nodes[1525].connectionManager passiveListUpdate:vector ETV
vector 487 FloodSubNetwork.nodes[4633].connectionManager passiveListUpdate:vector ETV
vector 488 FloodSubNetwork.nodes[997].connectionManager passiveListUpdate:vector ETV
vector 489 FloodSubNetwork.nodes[3972].connectionManager passiveListUpdate:vector ETV
vector 490 FloodSubNetwork.nodes[2936].connectionManager passiveListUpdate:vector ETV
vector 491 FloodSubNetwork.nodes[2845].connectionManager passiveListUpdate:vector ETV
vector 492 FloodSubNetwork.nodes[1558].connectionManager passiveListUpdate:vector ETV
vector 493 FloodSubNetwork.nodes[4403].connectionManager passiveListUpdate:vector ETV
vector 494 FloodSubNetwork.nodes[429].connectionManager passiveListUpdate:vector ETV
vector 495 FloodSubNetwork.nodes[4667].connectionManager passiveListUpdate:vector ETV
vector 496 FloodSubNetwork.nodes[3158].connectionManager passiveListUpdate:vector ETV
vector 497 FloodSubNetwork.nodes[2141].connectionManager passiveListUpdate:vector ETV
vector 498 FloodSubNetwork.nodes[351].connectionManager passiveListUpdate:vector ETV
vector 499 FloodSubNetwork.nodes[3511].connectionManager passiveListUpdate:vector ETV
vector 500 FloodSubNetwork.nodes[2877].connectionManager passiveListUpdate:vector ETV
vector 501 FloodSubNetwork.nodes[1463].connectionManager passiveListUpdate:vector ETV
vector 502 FloodSubNetwork.nodes[3875].connectionManager passiveListUpdate:vector ETV
vector 503 FloodSubNetwork.nodes[2645].connectionManager passiveListUpdate:vector ETV
vector 504 FloodSubNetwork.nodes[879].connectionManager passiveListUpdate:vector ETV
vector 505 FloodSubNetwork.nodes[4734].connectionManager passiveListUpdate:vector ETV
vector 506 FloodSubNetwork.nodes[4350].connectionManager passiveListUpdate:vector ETV
vector 507 FloodSubNetwork.nodes[1434].connectionManager passiveListUpdate:vector ETV
vector 508 FloodSubNetwork.nodes[4325].connectionManager passiveListUpdate:vector ETV
vector 509 FloodSubNetwork.nodes[4672].connectionManager passiveListUpdate:vector ETV
vector 510 FloodSubNetwork.nodes[1036].connectionManager passiveListUpdate:vector ETV
vector 511 FloodSubNetwork.nodes[746].connectionManager passiveListUpdate:vector ETV
vector 512 FloodSubNetwork.nodes[1843].connectionManager passiveListUpdate:vector ETV
vector 513 FloodSubNetwork.nodes[3711].connectionManager passiveListUpdate:vector ETV
vector 514 FloodSubNetwork.nodes[3286].connectionManager passiveListUpdate:vector ETV
vector 515 FloodSubNetwork.nodes[4647].connectionManager passiveListUpdate:vector ETV
vector 516 FloodSubNetwork.nodes[2582].connectionManager passiveListUpdate:vector ETV
vector 517 FloodSubNetwork.nodes[4726].connectionManager passiveListUpdate:vector ETV
vector 518 FloodSubNetwork.nodes[147].connectionManager passiveListUpdate:vector ETV
vector 519 FloodSubNetwork.nodes[3034].connectionManager passiveListUpdate:vector ETV
vector 520 FloodSubNetwork.nodes[346].connectionManager passiveListUpdate:vector ETV
vector 521 FloodSubNetwork.nodes[7].connectionManager passiveListUpdate:vector ETV
vector 522 FloodSubNetwork.nodes[2545].connectionManager passiveListUpdate:vector ETV
vector 523 FloodSubNetwork.nodes[4941].connectionManager passiveListUpdate:vector ETV
vector 524 FloodSubNetwork.nodes[4849].connectionManager passiveListUpdate:vector ETV
vector 525 FloodSubNetwork.nodes[1714].connectionManager passiveListUpdate:vector ETV
vector 526 FloodSubNetwork.nodes[389].connectionManager passiveListUpdate:vector ETV
vector 527 FloodSubNetwork.nodes[3042].connectionManager passiveListUpdate:vector ETV
vector 528 FloodSubNetwork.nodes[978].connectionManager passiveListUpdate:vector ETV
vector 529 FloodSubNetwork.nodes[2565].connectionManager passiveListUpdate:vector ETV
vector 530 FloodSubNetwork.nodes[1384].connectionManager passiveListUpdate:vector ETV
vector 531 FloodSubNetwork.nodes[1938].connectionManager passiveListUpdate:vector ETV
vector 532 FloodSubNetwork.nodes[4370].connectionManager passiveListUpdate:vector ETV
vector 533 FloodSubNetwork.nodes[4334].connectionManager passiveListUpdate:vector ETV
vector 534 FloodSubNetwork.nodes[3123].connectionManager passiveListUpdate:vector ETV
vector 535 FloodSubNetwork.nodes[2500].connectionManager passiveListUpdate:vector ETV
vector 536 FloodSubNetwork.nodes[393].connectionManager passiveListUpdate:vector ETV
vector 537 FloodSubNetwork.nodes[4880].connectionManager passiveListUpdate:vector ETV
vector 538 FloodSubNetwork.nodes[1989].connectionManager passiveListUpdate:vector ETV
vector 539 FloodSubNetwork.nodes[2826].connectionManager passiveListUpdate:vector ETV
vector 540 FloodSubNetwork.nodes[4582].connectionManager passiveListUpdate:vector ETV
vector 541 FloodSubNetwork.nodes[344].connectionManager passiveListUpdate:vector ETV
vector 542 FloodSubNetwork.nodes[1753].connectionManager passiveListUpdate:vector ETV
vector 543 FloodSubNetwork.nodes[3606].connectionManager passiveListUpdate:vector ETV
vector 544 FloodSubNetwork.nodes[1775].connectionManager passiveListUpdate:vector ETV
vector 545 FloodSubNetwork.nodes[1065].connectionManager passiveListUpdate:vector ETV
vector 546 FloodSubNetwork.nodes[641].connectionManager passiveListUpdate:vector ETV
vector 547 FloodSubNetwork.nodes[1724].connectionManager passiveListUpdate:vector ETV
vector 548 FloodSubNetwork.nodes[2182].connectionManager passiveListUpdate:vector ETV
vector 549 FloodSubNetwork.nodes[1520].connectionManager passiveListUpdate:vector ETV
vector 550 FloodSubNetwork.nodes[1263].connectionManager passiveListUpdate:vector ETV
vector 551 FloodSubNetwork.nodes[4029].connectionManager passiveListUpdate:vector ETV
vector 552 FloodSubNetwork.nodes[3359].connectionManager passiveListUpdate:vector ETV
vector 553 FloodSubNetwork.nodes[2658].connectionManager passiveListUpdate:vector ETV
vector 554 FloodSubNetwork.nodes[3047].connectionManager passiveListUpdate:vector ETV
vector 555 FloodSubNetwork.nodes[3041].connectionManager passiveListUpdate:vector ETV
vector 556 FloodSubNetwork.nodes[1290].connectionManager passiveListUpdate:vector ETV
vector 557 FloodSubNetwork.nodes[4211].connectionManager passiveListUpdate:vector ETV
vector 558 FloodSubNetwork.nodes[3942].connectionManager passiveListUpdate:vector ETV
vector 559 FloodSubNetwork.nodes[622].connectionManager passiveListUpdate:vector ETV
vector 560 FloodSubNetwork.nodes[3788].connectionManager passiveListUpdate:vector ETV
vector 561 FloodSubNetwork.nodes[803].connectionManager passiveListUpdate:vector ETV
vector 562 FloodSubNetwork.nodes[1236].connectionManager passiveListUpdate:vector ETV
vector 563 FloodSubNetwork.nodes[3999].connectionManager passiveListUpdate:vector ETV
vector 564 FloodSubNetwork.nodes[789].connectionManager passiveListUpdate:vector ETV
vector 565 FloodSubNetwork.nodes[2398].connectionManager passiveListUpdate:vector ETV
vector 566 FloodSubNetwork.nodes[1789].connectionManager passiveListUpdate:vector ETV
vector 567 FloodSubNetwork.nodes[666].connectionManager passiveListUpdate:vector ETV
vector 568 FloodSubNetwork.nodes[3063].connectionManager passiveListUpdate:vector ETV
vector 569 FloodSubNetwork.nodes[4367].connectionManager passiveListUpdate:vector ETV
vector 570 FloodSubNetwork.nodes[216].connectionManager passiveListUpdate:vector ETV
vector 571 FloodSubNetwork.nodes[1544].connectionManager passiveListUpdate:vector ETV
vector 572 FloodSubNetwork.nodes[4152].connectionManager passiveListUpdate:vector ETV
vector 573 FloodSubNetwork.nodes[2711].connectionManager passiveListUpdate:vector ETV
vector 574 FloodSubNetwork.nodes[2147].connectionManager passiveListUpdate:vector ETV
vector 575 FloodSubNetwork.nodes[4245].connectionManager passiveListUpdate:vector ETV
vector 576 FloodSubNetwork.nodes[1485].connectionManager passiveListUpdate:vector ETV
vector 577 FloodSubNetwork.nodes[3627].connectionManager passiveListUpdate:vector ETV
vector 578 FloodSubNetwork.nodes[1333].connectionManager passiveListUpdate:vector ETV
vector 579 FloodSubNetwork.nodes[3153].connectionManager passiveListUpdate:vector ETV
vector 580 FloodSubNetwork.nodes[3276].connectionManager passiveListUpdate:vector ETV
vector 581 FloodSubNetwork.nodes[4047].connectionManager passiveListUpdate:vector ETV
vector 582 FloodSubNetwork.nodes[4286].connectionManager passiveListUpdate:vector ETV
vector 583 FloodSubNetwork.nodes[2287].connectionManager passiveListUpdate:vector ETV
vector 584 FloodSubNetwork.nodes[1063].connectionManager passiveListUpdate:vector ETV
vector 585 FloodSubNetwork.nodes[1642].connectionManager passiveListUpdate:vector ETV
vector 586 FloodSubNetwork.nodes[4722].connectionManager passiveListUpdate:vector ETV
vector 587 FloodSubNetwork.nodes[1807].connectionManager passiveListUpdate:vector ETV
vector 588 FloodSubNetwork.nodes[3060].connectionManager passiveListUpdate:vector ETV
vector 589 FloodSubNetwork.nodes[569].connectionManager passiveListUpdate:vector ETV
vector 590 FloodSubNetwork.nodes[4802].connectionManager passiveListUpdate:vector ETV
vector 591 FloodSubNetwork.nodes[892].connectionManager passiveListUpdate:vector ETV
vector 592 FloodSubNetwork.nodes[2839].connectionManager passiveListUpdate:vector ETV
vector 593 FloodSubNetwork.nodes[2376].connectionManager passiveListUpdate:vector ETV
vector 594 FloodSubNetwork.nodes[460].connectionManager passiveListUpdate:vector ETV
vector 595 FloodSubNetwork.nodes[120].connectionManager passiveListUpdate:vector ETV
vector 596 FloodSubNetwork.nodes[1184].connectionManager passiveListUpdate:vector ETV
vector 597 FloodSubNetwork.nodes[2073].connectionManager passiveListUpdate:vector ETV
vector 598 FloodSubNetwork.nodes[3130].connectionManager passiveListUpdate:vector ETV
vector 599 FloodSubNetwork.nodes[487].connectionManager passiveListUpdate:vector ETV
vector 600 FloodSubNetwork.nodes[1828].connectionManager passiveListUpdate:vector ETV
vector 601 FloodSubNetwork.nodes[3877].connectionManager passiveListUpdate:vector ETV
vector 602 FloodSubNetwork.nodes[488].connectionManager passiveListUpdate:vector ETV
vector 603 FloodSubNetwork.nodes[2871].connectionManager passiveListUpdate:vector ETV
vector 604 FloodSubNetwork.nodes[1957].connectionManager passiveListUpdate:vector ETV
vector 605 FloodSubNetwork.nodes[3594].connectionManager passiveListUpdate:vector ETV
vector 606 FloodSubNetwork.nodes[3197].connectionManager passiveListUpdate:vector ETV
vector 607 FloodSubNetwork.nodes[4157].connectionManager passiveListUpdate:vector ETV
vector 608 FloodSubNetwork.nodes[4284].connectionManager passiveListUpdate:vector ETV
vector 609 FloodSubNetwork.nodes[3126].connectionManager passiveListUpdate:vector ETV
vector 610 FloodSubNetwork.nodes[1921].connectionManager passiveListUpdate:vector ETV
vector 611 FloodSubNetwork.nodes[4137].connectionManager passiveListUpdate:vector ETV
vector 612 FloodSubNetwork.nodes[3265].connectionManager passiveListUpdate:vector ETV
vector 613 FloodSubNetwork.nodes[1797].connectionManager passiveListUpdate:vector ETV
vector 614 FloodSubNetwork.nodes[217].connectionManager passiveListUpdate:vector ETV
vector 615 FloodSubNetwork.nodes[1860].connectionManager passiveListUpdate:vector ETV
vector 616 FloodSubNetwork.nodes[1049].connectionManager passiveListUpdate:vector ETV
vector 617 FloodSubNetwork.nodes[4216].connectionManager passiveListUpdate:vector ETV
vector 618 FloodSubNetwork.nodes[1467].connectionManager passiveListUpdate:vector ETV
vector 619 FloodSubNetwork.nodes[3005].connectionManager passiveListUpdate:vector ETV
vector 620 FloodSubNetwork.nodes[43].connectionManager passiveListUpdate:vector ETV
vector 621 FloodSubNetwork.nodes[4676].connectionManager passiveListUpdate:vector ETV
vector 622 FloodSubNetwork.nodes[1487].connectionManager passiveListUpdate:vector ETV
vector 623 FloodSubNetwork.nodes[2506].connectionManager passiveListUpdate:vector ETV
vector 624 FloodSubNetwork.nodes[3163].connectionManager passiveListUpdate:vector ETV
vector 625 FloodSubNetwork.nodes[4386].connectionManager passiveListUpdate:vector ETV
vector 626 FloodSubNetwork.nodes[1349].connectionManager passiveListUpdate:vector ETV
vector 627 FloodSubNetwork.nodes[3607].connectionManager passiveListUpdate:vector ETV
vector 628 FloodSubNetwork.nodes[3550].connectionManager passiveListUpdate:vector ETV
vector 629 FloodSubNetwork.nodes[2257].connectionManager passiveListUpdate:vector ETV
vector 630 FloodSubNetwork.nodes[1699].connectionManager passiveListUpdate:vector ETV
vector 631 FloodSubNetwork.nodes[1978].connectionManager passiveListUpdate:vector ETV
vector 632 FloodSubNetwork.nodes[4691].connectionManager passiveListUpdate:vector ETV
vector 633 FloodSubNetwork.nodes[311].connectionManager passiveListUpdate:vector ETV
vector 634 FloodSubNetwork.nodes[862].connectionManager passiveListUpdate:vector ETV
vector 635 FloodSubNetwork.nodes[4892].connectionManager passiveListUpdate:vector ETV
vector 636 FloodSubNetwork.nodes[2999].connectionManager passiveListUpdate:vector ETV
vector 637 FloodSubNetwork.nodes[945].connectionManager passiveListUpdate:vector ETV
vector 638 FloodSubNetwork.nodes[611].connectionManager passiveListUpdate:vector ETV
vector 639 FloodSubNetwork.nodes[1172].connectionManager passiveListUpdate:vector ETV
vector 640 FloodSubNetwork.nodes[3904].connectionManager passiveListUpdate:vector ETV
vector 641 FloodSubNetwork.nodes[4933].connectionManager passiveListUpdate:vector ETV
vector 642 FloodSubNetwork.nodes[2245].connectionManager passiveListUpdate:vector ETV
vector 643 FloodSubNetwork.nodes[2937].connectionManager passiveListUpdate:vector ETV
vector 644 FloodSubNetwork.nodes[1518].connectionManager passiveListUpdate:vector ETV
vector 645 FloodSubNetwork.nodes[4589].connectionManager passiveListUpdate:vector ETV
vector 646 FloodSubNetwork.nodes[2451].connectionManager passiveListUpdate:vector ETV
vector 647 FloodSubNetwork.nodes[4462].connectionManager passiveListUpdate:vector ETV
vector 648 FloodSubNetwork.nodes[3368].connectionManager passiveListUpdate:vector ETV
vector 649 FloodSubNetwork.nodes[35].connectionManager passiveListUpdate:vector ETV
vector 650 FloodSubNetwork.nodes[2483].connectionManager passiveListUpdate:vector ETV
vector 651 FloodSubNetwork.nodes[3054].connectionManager passiveListUpdate:vector ETV
vector 652 FloodSubNetwork.nodes[4118].connectionManager passiveListUpdate:vector ETV
vector 653 FloodSubNetwork.nodes[3515].connectionManager passiveListUpdate:vector ETV
vector 654 FloodSubNetwork.nodes[560].connectionManager passiveListUpdate:vector ETV
vector 655 FloodSubNetwork.nodes[2570].connectionManager passiveListUpdate:vector ETV
vector 656 FloodSubNetwork.nodes[3495].connectionManager passiveListUpdate:vector ETV
vector 657 FloodSubNetwork.nodes[627].connectionManager passiveListUpdate:vector ETV
vector 658 FloodSubNetwork.nodes[3649].connectionManager passiveListUpdate:vector ETV
vector 659 FloodSubNetwork.nodes[426].connectionManager passiveListUpdate:vector ETV
vector 660 FloodSubNetwork.nodes[4493].connectionManager passiveListUpdate:vector ETV
vector 661 FloodSubNetwork.nodes[1607].connectionManager passiveListUpdate:vector ETV
vector 662 FloodSubNetwork.nodes[4305].connectionManager passiveListUpdate:vector ETV
vector 663 FloodSubNetwork.nodes[981].connectionManager passiveListUpdate:vector ETV
vector 664 FloodSubNetwork.nodes[172].connectionManager passiveListUpdate:vector ETV
vector 665 FloodSubNetwork.nodes[2384].connectionManager passiveListUpdate:vector ETV
vector 666 FloodSubNetwork.nodes[3457].connectionManager passiveListUpdate:vector ETV
vector 667 FloodSubNetwork.nodes[3555].connectionManager passiveListUpdate:vector ETV
vector 668 FloodSubNetwork.nodes[743].connectionManager passiveListUpdate:vector ETV
vector 669 FloodSubNetwork.nodes[3485].connectionManager passiveListUpdate:vector ETV
vector 670 FloodSubNetwork.nodes[2917].connectionManager passiveListUpdate:vector ETV
vector 671 FloodSubNetwork.nodes[4110].connectionManager passiveListUpdate:vector ETV
vector 672 FloodSubNetwork.nodes[2614].connectionManager passiveListUpdate:vector ETV
vector 673 FloodSubNetwork.nodes[3452].connectionManager passiveListUpdate:vector ETV
vector 674 FloodSubNetwork.nodes[870].connectionManager passiveListUpdate:vector ETV
vector 675 FloodSubNetwork.nodes[3260].connectionManager passiveListUpdate:vector ETV
vector 676 FloodSubNetwork.nodes[534].connectionManager passiveListUpdate:vector ETV
vector 677 FloodSubNetwork.nodes[3460].connectionManager passiveListUpdate:vector ETV
vector 678 FloodSubNetwork.nodes[741].connectionManager passiveListUpdate:vector ETV
vector 679 FloodSubNetwork.nodes[4182].connectionManager passiveListUpdate:vector ETV
vector 680 FloodSubNetwork.nodes[533].connectionManager passiveListUpdate:vector ETV
vector 681 FloodSubNetwork.nodes[2630].connectionManager passiveListUpdate:vector ETV
vector 682 FloodSubNetwork.nodes[3214].connectionManager passiveListUpdate:vector ETV
vector 683 FloodSubNetwork.nodes[2327].connectionManager passiveListUpdate:vector ETV
vector 684 FloodSubNetwork.nodes[808].connectionManager passiveListUpdate:vector ETV
vector 685 FloodSubNetwork.nodes[113].connectionManager passiveListUpdate:vector ETV
vector 686 FloodSubNetwork.nodes[3305].connectionManager passiveListUpdate:vector ETV
vector 687 FloodSubNetwork.nodes[1478].connectionManager passiveListUpdate:vector ETV
vector 688 FloodSubNetwork.nodes[4006].connectionManager passiveListUpdate:vector ETV
vector 689 FloodSubNetwork.nodes[1657].connectionManager passiveListUpdate:vector ETV
vector 690 FloodSubNetwork.nodes[2242].connectionManager passiveListUpdate:vector ETV
vector 691 FloodSubNetwork.nodes[3929].connectionManager passiveListUpdate:vector ETV
vector 692 FloodSubNetwork.nodes[3628].connectionManager passiveListUpdate:vector ETV
vector 693 FloodSubNetwork.nodes[4313].connectionManager passiveListUpdate:vector ETV
vector 694 FloodSubNetwork.nodes[660].connectionManager passiveListUpdate:vector ETV
vector 695 FloodSubNetwork.nodes[2944].connectionManager passiveListUpdate:vector ETV
vector 696 FloodSubNetwork.nodes[3784].connectionManager passiveListUpdate:vector ETV
vector 697 FloodSubNetwork.nodes[4915].connectionManager passiveListUpdate:vector ETV
vector 698 FloodSubNetwork.nodes[4957].connectionManager passiveListUpdate:vector ETV
vector 699 FloodSubNetwork.nodes[4176].connectionManager passiveListUpdate:vector ETV
vector 700 FloodSubNetwork.nodes[2289].connectionManager passiveListUpdate:vector ETV
vector 701 FloodSubNetwork.nodes[3271].connectionManager passiveListUpdate:vector ETV
vector 702 FloodSubNetwork.nodes[4089].connectionManager passiveListUpdate:vector ETV
vector 703 FloodSubNetwork.nodes[2733].connectionManager passiveListUpdate:vector ETV
vector 704 FloodSubNetwork.nodes[164].connectionManager passiveListUpdate:vector ETV
vector 705 FloodSubNetwork.nodes[2206].connectionManager passiveListUpdate:vector ETV
vector 706 FloodSubNetwork.nodes[2415].connectionManager passiveListUpdate:vector ETV
vector 707 FloodSubNetwork.nodes[3632].connectionManager passiveListUpdate:vector ETV
vector 708 FloodSubNetwork.nodes[2197].connectionManager passiveListUpdate:vector ETV
vector 709 FloodSubNetwork.nodes[3437].connectionManager passiveListUpdate:vector ETV
vector 710 FloodSubNetwork.nodes[49].connectionManager passiveListUpdate:vector ETV
vector 711 FloodSubNetwork.nodes[1794].connectionManager passiveListUpdate:vector ETV
vector 712 FloodSubNetwork.nodes[1678].connectionManager passiveListUpdate:vector ETV
vector 713 FloodSubNetwork.nodes[3718].connectionManager passiveListUpdate:vector ETV
vector 714 FloodSubNetwork.nodes[4310].connectionManager passiveListUpdate:vector ETV
vector 715 FloodSubNetwork.nodes[1918].connectionManager passiveListUpdate:vector ETV
vector 716 FloodSubNetwork.nodes[272].connectionManager passiveListUpdate:vector ETV
vector 717 FloodSubNetwork.nodes[4750].connectionManager passiveListUpdate:vector ETV
vector 718 FloodSubNetwork.nodes[2127].connectionManager passiveListUpdate:vector ETV
vector 719 FloodSubNetwork.nodes[1709].connectionManager passiveListUpdate:vector ETV
vector 720 FloodSubNetwork.nodes[4001].connectionManager passiveListUpdate:vector ETV
vector 721 FloodSubNetwork.nodes[2437].connectionManager passiveListUpdate:vector ETV
vector 722 FloodSubNetwork.nodes[297].connectionManager passiveListUpdate:vector ETV
vector 723 FloodSubNetwork.nodes[4803].connectionManager passiveListUpdate:vector ETV
vector 724 FloodSubNetwork.nodes[3890].connectionManager passiveListUpdate:vector ETV
vector 725 FloodSubNetwork.nodes[3857].connectionManager passiveListUpdate:vector ETV
vector 726 FloodSubNetwork.nodes[3993].connectionManager passiveListUpdate:vector ETV
vector 727 FloodSubNetwork.nodes[1266].connectionManager passiveListUpdate:vector ETV
vector 728 FloodSubNetwork.nodes[3257].connectionManager passiveListUpdate:vector ETV
vector 729 FloodSubNetwork.nodes[2295].connectionManager passiveListUpdate:vector ETV
vector 730 FloodSubNetwork.nodes[1703].connectionManager passiveListUpdate:vector ETV
vector 731 FloodSubNetwork.nodes[1452].connectionManager passiveListUpdate:vector ETV
vector 732 FloodSubNetwork.nodes[3697].connectionManager passiveListUpdate:vector ETV
vector 733 FloodSubNetwork.nodes[3765].connectionManager passiveListUpdate:vector ETV
vector 734 FloodSubNetwork.nodes[3007].connectionManager passiveListUpdate:vector ETV
vector 735 FloodSubNetwork.nodes[4454].connectionManager passiveListUpdate:vector ETV
vector 736 FloodSubNetwork.nodes[39].connectionManager passiveListUpdate:vector ETV
vector 737 FloodSubNetwork.nodes[2131].connectionManager passiveListUpdate:vector ETV
vector 738 FloodSubNetwork.nodes[3458].connectionManager passiveListUpdate:vector ETV
vector 739 FloodSubNetwork.nodes[2894].connectionManager passiveListUpdate:vector ETV
vector 740 FloodSubNetwork.nodes[3948].connectionManager passiveListUpdate:vector ETV
vector 741 FloodSubNetwork.nodes[3752].connectionManager passiveListUpdate:vector ETV
vector 742 FloodSubNetwork.nodes[333].connectionManager passiveListUpdate:vector ETV
vector 743 FloodSubNetwork.nodes[4587].connectionManager passiveListUpdate:vector ETV
vector 744 FloodSubNetwork.nodes[1419].connectionManager passiveListUpdate:vector ETV
vector 745 FloodSubNetwork.nodes[3178].connectionManager passiveListUpdate:vector ETV
vector 746 FloodSubNetwork.nodes[857].connectionManager passiveListUpdate:vector ETV
vector 747 FloodSubNetwork.nodes[3135].connectionManager passiveListUpdate:vector ETV
vector 748 FloodSubNetwork.nodes[582].connectionManager passiveListUpdate:vector ETV
vector 749 FloodSubNetwork.nodes[4774].connectionManager passiveListUpdate:vector ETV
vector 750 FloodSubNetwork.nodes[4025].connectionManager passiveListUpdate:vector ETV
vector 751 FloodSubNetwork.nodes[468].connectionManager passiveListUpdate:vector ETV
vector 752 FloodSubNetwork.nodes[1549].connectionManager passiveListUpdate:vector ETV
vector 753 FloodSubNetwork.nodes[825].connectionManager passiveListUpdate:vector ETV
vector 754 FloodSubNetwork.nodes[3328].connectionManager passiveListUpdate:vector ETV
vector 755 FloodSubNetwork.nodes[3938].connectionManager passiveListUpdate:vector ETV
vector 756 FloodSubNetwork.nodes[624].connectionManager passiveListUpdate:vector ETV
vector 757 FloodSubNetwork.nodes[2250].connectionManager passiveListUpdate:vector ETV
vector 758 FloodSubNetwork.nodes[4525].connectionManager passiveListUpdate:vector ETV
vector 759 FloodSubNetwork.nodes[354].connectionManager passiveListUpdate:vector ETV
vector 760 FloodSubNetwork.nodes[4773].connectionManager passiveListUpdate:vector ETV
vector 761 FloodSubNetwork.nodes[4999].connectionManager passiveListUpdate:vector ETV
vector 762 FloodSubNetwork.nodes[2558].connectionManager passiveListUpdate:vector ETV
vector 763 FloodSubNetwork.nodes[2540].connectionManager passiveListUpdate:vector ETV
vector 764 FloodSubNetwork.nodes[2035].connectionManager passiveListUpdate:vector ETV
vector 765 FloodSubNetwork.nodes[2515].connectionManager passiveListUpdate:vector ETV
vector 766 FloodSubNetwork.nodes[2215].connectionManager passiveListUpdate:vector ETV
vector 767 FloodSubNetwork.nodes[4992].connectionManager passiveListUpdate:vector ETV
vector 768 FloodSubNetwork.nodes[3274].connectionManager passiveListUpdate:vector ETV
vector 769 FloodSubNetwork.nodes[2056].connectionManager passiveListUpdate:vector ETV
vector 770 FloodSubNetwork.nodes[2588].connectionManager passiveListUpdate:vector ETV
vector 771 FloodSubNetwork.nodes[4780].connectionManager passiveListUpdate:vector ETV
vector 772 FloodSubNetwork.nodes[709].connectionManager passiveListUpdate:vector ETV
vector 773 FloodSubNetwork.nodes[4896].connectionManager passiveListUpdate:vector ETV
vector 774 FloodSubNetwork.nodes[1344].connectionManager passiveListUpdate:vector ETV
vector 775 FloodSubNetwork.nodes[636].connectionManager passiveListUpdate:vector ETV
vector 776 FloodSubNetwork.nodes[1335].connectionManager passiveListUpdate:vector ETV
vector 777 FloodSubNetwork.nodes[793].connectionManager passiveListUpdate:vector ETV
vector 778 FloodSubNetwork.nodes[3888].connectionManager passiveListUpdate:vector ETV
vector 779 FloodSubNetwork.nodes[3199].connectionManager passiveListUpdate:vector ETV
vector 780 FloodSubNetwork.nodes[4904].connectionManager passiveListUpdate:vector ETV
vector 781 FloodSubNetwork.nodes[3636].connectionManager passiveListUpdate:vector ETV
vector 782 FloodSubNetwork.nodes[542].connectionManager passiveListUpdate:vector ETV
vector 783 FloodSubNetwork.nodes[4276].connectionManager passiveListUpdate:vector ETV
vector 784 FloodSubNetwork.nodes[3974].connectionManager passiveListUpdate:vector ETV
vector 785 FloodSubNetwork.nodes[3868].connectionManager passiveListUpdate:vector ETV
vector 786 FloodSubNetwork.nodes[4491].connectionManager passiveListUpdate:vector ETV
vector 787 FloodSubNetwork.nodes[931].connectionManager passiveListUpdate:vector ETV
vector 788 FloodSubNetwork.nodes[2321].connectionManager passiveListUpdate:vector ETV
vector 789 FloodSubNetwork.nodes[3112].connectionManager passiveListUpdate:vector ETV
vector 790 FloodSubNetwork.nodes[4124].connectionManager passiveListUpdate:vector ETV
vector 791 FloodSubNetwork.nodes[1248].connectionManager passiveListUpdate:vector ETV
vector 792 FloodSubNetwork.nodes[4834].connectionManager passiveListUpdate:vector ETV
vector 793 FloodSubNetwork.nodes[3242].connectionManager passiveListUpdate:vector ETV
vector 794 FloodSubNetwork.nodes[128].connectionManager passiveListUpdate:vector ETV
vector 795 FloodSubNetwork.nodes[3309].connectionManager passiveListUpdate:vector ETV
vector 796 FloodSubNetwork.nodes[1630].connectionManager passiveListUpdate:vector ETV
vector 797 FloodSubNetwork.nodes[2928].connectionManager passiveListUpdate:vector ETV
vector 798 FloodSubNetwork.nodes[3767].connectionManager passiveListUpdate:vector ETV
vector 799 FloodSubNetwork.nodes[288].connectionManager passiveListUpdate:vector ETV
vector 800 FloodSubNetwork.nodes[369].connectionManager passiveListUpdate:vector ETV
vector 801 FloodSubNetwork.nodes[26].connectionManager passiveListUpdate:vector ETV
vector 802 FloodSubNetwork.nodes[1971].connectionManager passiveListUpdate:vector ETV
vector 803 FloodSubNetwork.nodes[914].connectionManager passiveListUpdate:vector ETV
vector 804 FloodSubNetwork.nodes[277].connectionManager passiveListUpdate:vector ETV
vector 805 FloodSubNetwork.nodes[4393].connectionManager passiveListUpdate:vector ETV
vector 806 FloodSubNetwork.nodes[3465].connectionManager passiveListUpdate:vector ETV
vector 807 FloodSubNetwork.nodes[1579].connectionManager passiveListUpdate:vector ETV
vector 808 FloodSubNetwork.nodes[1907].connectionManager passiveListUpdate:vector ETV
vector 809 FloodSubNetwork.nodes[564].connectionManager passiveListUpdate:vector ETV
vector 810 FloodSubNetwork.nodes[694].connectionManager passiveListUpdate:vector ETV
vector 811 FloodSubNetwork.nodes[4372].connectionManager passiveListUpdate:vector ETV
vector 812 FloodSubNetwork.nodes[3466].connectionManager passiveListUpdate:vector ETV
vector 813 FloodSubNetwork.nodes[2793].connectionManager passiveListUpdate:vector ETV
vector 814 FloodSubNetwork.nodes[3757].connectionManager passiveListUpdate:vector ETV
vector 815 FloodSubNetwork.nodes[1545].connectionManager passiveListUpdate:vector ETV
vector 816 FloodSubNetwork.nodes[3906].connectionManager passiveListUpdate:vector ETV
vector 817 FloodSubNetwork.nodes[4237].connectionManager passiveListUpdate:vector ETV
vector 818 FloodSubNetwork.nodes[1377].connectionManager passiveListUpdate:vector ETV
vector 819 FloodSubNetwork.nodes[1493].connectionManager passiveListUpdate:vector ETV
vector 820 FloodSubNetwork.nodes[3308].connectionManager passiveListUpdate:vector ETV
vector 821 FloodSubNetwork.nodes[476].connectionManager passiveListUpdate:vector ETV
vector 822 FloodSubNetwork.nodes[1928].connectionManager passiveListUpdate:vector ETV
vector 823 FloodSubNetwork.nodes[4224].connectionManager passiveListUpdate:vector ETV
vector 824 FloodSubNetwork.nodes[4610].connectionManager passiveListUpdate:vector ETV
vector 825 FloodSubNetwork.nodes[3395].connectionManager passiveListUpdate:vector ETV
vector 826 FloodSubNetwork.nodes[2033].connectionManager passiveListUpdate:vector ETV
vector 827 FloodSubNetwork.nodes[2884].connectionManager passiveListUpdate:vector ETV
vector 828 FloodSubNetwork.nodes[3390].connectionManager passiveListUpdate:vector ETV
vector 829 FloodSubNetwork.nodes[2864].connectionManager passiveListUpdate:vector ETV
vector 830 FloodSubNetwork.nodes[3928].connectionManager passiveListUpdate:vector ETV
vector 831 FloodSubNetwork.nodes[1079].connectionManager passiveListUpdate:vector ETV
vector 832 FloodSubNetwork.nodes[2969].connectionManager passiveListUpdate:vector ETV
vector 833 FloodSubNetwork.nodes[2639].connectionManager passiveListUpdate:vector ETV
vector 834 FloodSubNetwork.nodes[2476].connectionManager passiveListUpdate:vector ETV
vector 835 FloodSubNetwork.nodes[1792].connectionManager passiveListUpdate:vector ETV
vector 836 FloodSubNetwork.nodes[1827].connectionManager passiveListUpdate:vector ETV
vector 837 FloodSubNetwork.nodes[4460].connectionManager passiveListUpdate:vector ETV
vector 838 FloodSubNetwork.nodes[4871].connectionManager passiveListUpdate:vector ETV
vector 839 FloodSubNetwork.nodes[4795].connectionManager passiveListUpdate:vector ETV
vector 840 FloodSubNetwork.nodes[1456].connectionManager passiveListUpdate:vector ETV
vector 841 FloodSubNetwork.nodes[2887].connectionManager passiveListUpdate:vector ETV
vector 842 FloodSubNetwork.nodes[168].connectionManager passiveListUpdate:vector ETV
vector 843 FloodSubNetwork.nodes[4477].connectionManager passiveListUpdate:vector ETV
vector 844 FloodSubNetwork.nodes[3647].connectionManager passiveListUpdate:vector ETV
vector 845 FloodSubNetwork.nodes[4155].connectionManager passiveListUpdate:vector ETV
vector 846 FloodSubNetwork.nodes[3296].connectionManager passiveListUpdate:vector ETV
vector 847 FloodSubNetwork.nodes[3094].connectionManager passiveListUpdate:vector ETV
vector 848 FloodSubNetwork.nodes[4061].connectionManager passiveListUpdate:vector ETV
vector 849 FloodSubNetwork.nodes[4416].connectionManager passiveListUpdate:vector ETV
vector 850 FloodSubNetwork.nodes[2753].connectionManager passiveListUpdate:vector ETV
vector 851 FloodSubNetwork.nodes[2553].connectionManager passiveListUpdate:vector ETV
vector 852 FloodSubNetwork.nodes[2432].connectionManager passiveListUpdate:vector ETV
vector 853 FloodSubNetwork.nodes[2640].connectionManager passiveListUpdate:vector ETV
vector 854 FloodSubNetwork.nodes[2446].connectionManager passiveListUpdate:vector ETV
vector 855 FloodSubNetwork.nodes[355].connectionManager passiveListUpdate:vector ETV
vector 856 FloodSubNetwork.nodes[1069].connectionManager passiveListUpdate:vector ETV
vector 857 FloodSubNetwork.nodes[65].connectionManager passiveListUpdate:vector ETV
vector 858 FloodSubNetwork.nodes[4943].connectionManager passiveListUpdate:vector ETV
vector 859 FloodSubNetwork.nodes[2511].connectionManager passiveListUpdate:vector ETV
vector 860 FloodSubNetwork.nodes[1815].connectionManager passiveListUpdate:vector ETV
vector 861 FloodSubNetwork.nodes[20].connectionManager passiveListUpdate:vector ETV
vector 862 FloodSubNetwork.nodes[3108].connectionManager passiveListUpdate:vector ETV
vector 863 FloodSubNetwork.nodes[4331].connectionManager passiveListUpdate:vector ETV
vector 864 FloodSubNetwork.nodes[4404].connectionManager passiveListUpdate:vector ETV
vector 865 FloodSubNetwork.nodes[3887].connectionManager passiveListUpdate:vector ETV
vector 866 FloodSubNetwork.nodes[1109].connectionManager passiveListUpdate:vector ETV
vector 867 FloodSubNetwork.nodes[436].connectionManager passiveListUpdate:vector ETV
vector 868 FloodSubNetwork.nodes[240].connectionManager passiveListUpdate:vector ETV
vector 869 FloodSubNetwork.nodes[106].connectionManager passiveListUpdate:vector ETV
vector 870 FloodSubNetwork.nodes[1924].connectionManager passiveListUpdate:vector ETV
vector 871 FloodSubNetwork.nodes[1360].connectionManager passiveListUpdate:vector ETV
vector 872 FloodSubNetwork.nodes[4087].connectionManager passiveListUpdate:vector ETV
vector 873 FloodSubNetwork.nodes[450].connectionManager passiveListUpdate:vector ETV
vector 874 FloodSubNetwork.nodes[1432].connectionManager passiveListUpdate:vector ETV
vector 875 FloodSubNetwork.nodes[4642].connectionManager passiveListUpdate:vector ETV
vector 876 FloodSubNetwork.nodes[4698].connectionManager passiveListUpdate:vector ETV
vector 877 FloodSubNetwork.nodes[971].connectionManager passiveListUpdate:vector ETV
vector 878 FloodSubNetwork.nodes[1728].connectionManager passiveListUpdate:vector ETV
vector 879 FloodSubNetwork.nodes[2318].connectionManager passiveListUpdate:vector ETV
vector 880 FloodSubNetwork.nodes[4980].connectionManager passiveListUpdate:vector ETV
vector 881 FloodSubNetwork.nodes[2058].connectionManager passiveListUpdate:vector ETV
vector 882 FloodSubNetwork.nodes[2882].connectionManager passiveListUpdate:vector ETV
vector 883 FloodSubNetwork.nodes[2957].connectionManager passiveListUpdate:vector ETV
vector 884 FloodSubNetwork.nodes[4538].connectionManager passiveListUpdate:vector ETV
vector 885 FloodSubNetwork.nodes[4204].connectionManager passiveListUpdate:vector ETV
vector 886 FloodSubNetwork.nodes[3762].connectionManager passiveListUpdate:vector ETV
vector 887 FloodSubNetwork.nodes[1438].connectionManager passiveListUpdate:vector ETV
vector 888 FloodSubNetwork.nodes[3916].connectionManager passiveListUpdate:vector ETV
vector 889 FloodSubNetwork.nodes[519].connectionManager passiveListUpdate:vector ETV
vector 890 FloodSubNetwork.nodes[4193].connectionManager passiveListUpdate:vector ETV
vector 891 FloodSubNetwork.nodes[3621].connectionManager passiveListUpdate:vector ETV
vector 892 FloodSubNetwork.nodes[2998].connectionManager passiveListUpdate:vector ETV
vector 893 FloodSubNetwork.nodes[4278].connectionManager passiveListUpdate:vector ETV
vector 894 FloodSubNetwork.nodes[1427].connectionManager passiveListUpdate:vector ETV
vector 895 FloodSubNetwork.nodes[4791].connectionManager passiveListUpdate:vector ETV
vector 896 FloodSubNetwork.nodes[2954].connectionManager passiveListUpdate:vector ETV
vector 897 FloodSubNetwork.nodes[1265].connectionManager passiveListUpdate:vector ETV
vector 898 FloodSubNetwork.nodes[3536].connectionManager passiveListUpdate:vector ETV
vector 899 FloodSubNetwork.nodes[1417].connectionManager passiveListUpdate:vector ETV
vector 900 FloodSubNetwork.nodes[4611].connectionManager passiveListUpdate:vector ETV
vector 901 FloodSubNetwork.nodes[427].connectionManager passiveListUpdate:vector ETV
vector 902 FloodSubNetwork.nodes[4918].connectionManager passiveListUpdate:vector ETV
vector 903 FloodSubNetwork.nodes[628].connectionManager passiveListUpdate:vector ETV
vector 904 FloodSubNetwork.nodes[4752].connectionManager passiveListUpdate:vector ETV
vector 905 FloodSubNetwork.nodes[4046].connectionManager passiveListUpdate:vector ETV
vector 906 FloodSubNetwork.nodes[620].connectionManager passiveListUpdate:vector ETV
vector 907 FloodSubNetwork.nodes[2129].connectionManager passiveListUpdate:vector ETV
vector 908 FloodSubNetwork.nodes[2088].connectionManager passiveListUpdate:vector ETV
vector 909 FloodSubNetwork.nodes[936].connectionManager passiveListUpdate:vector ETV
vector 910 FloodSubNetwork.nodes[1877].connectionManager passiveListUpdate:vector ETV
vector 911 FloodSubNetwork.nodes[2443].connectionManager passiveListUpdate:vector ETV
vector 912 FloodSubNetwork.nodes[4770].connectionManager passiveListUpdate:vector ETV
vector 913 FloodSubNetwork.nodes[2424].connectionManager passiveListUpdate:vector ETV
vector 914 FloodSubNetwork.nodes[1214].connectionManager passiveListUpdate:vector ETV
vector 915 FloodSubNetwork.nodes[2737].connectionManager passiveListUpdate:vector ETV
vector 916 FloodSubNetwork.nodes[4567].connectionManager passiveListUpdate:vector ETV
[...]
4809	105588315 2863 878850101 983326861 509.571396506477 599.630273708848 82 21 21 1722 36162
4810	105591178 3353 880007131 982259784 510.563385487327 598.389997748751 96 21 21 2016 42336
4811	105594531 2581 879540250 983225902 510.098182630502 599.552321319689 74 21 21 1554 32634
4812	105597112 2549 879449779 983009668 510.001464484329 599.282351445546 73 21 21 1533 32193
4813	105599661 2267 880416847 983220427 510.96029996143 599.547711947281 65 21 21 1365 28665
4814	105601928 2647 880102512 982512131 510.709499511826 598.67909068231 76 21 21 1596 33516
4815	105604575 2514 879905121 982597242 510.433976001209 598.768663010667 72 21 21 1512 31752
4816	105607089 2201 879946314 982211972 510.482142411449 598.324921422686 63 21 21 1323 27783
4817	105609290 2856 880406091 982707096 510.953714699988 598.887643021165 82 21 21 1722 36162
4818	105612146 2754 879065441 983477230 509.686989624501 599.743711821571 79 22 22 1738 38236
4819	105614900 2546 880152208 982566237 510.778423303365 598.739814383476 73 21 21 1533 32193
4820	105617446 3313 878787677 983264968 509.541195368563 599.584773583265 95 21 21 1995 41895
4821	105620759 4007 880084601 983029545 510.692653139832 599.320151278367 115 22 22 2530 55660
4822	105624766 2788 879488560 982064305 510.03922752829 598.122975401487 80 21 21 1680 35280
4823	105627554 2827 879468476 982085042 510.014070819794 598.160122699365 81 21 21 1701 35721
4824	105630381 4055 879015213 983202503 509.662225221097 599.535300481848 116 21 21 2436 51156
4825	105634436 2831 880018904 982192032 510.579687272035 598.302364429726 81 21 21 1701 35721
4826	105637267 2650 879728898 982207255 510.264864186259 598.318300608861 76 21 21 1596 33516
4827	105639917 2962 879118692 983518577 509.722991940174 599.776647424665 85 21 21 1785 37485
4828	105642879 3480 879757702 982172834 510.28763638225 598.278821250744 100 21 21 2100 44100
4829	105646359 2576 878649096 983164316 509.485258420743 599.499475760963 74 21 21 1554 32634
4830	105648935 2647 879707695 983052564 510.2469089148 599.353687175721 76 21 21 1596 33516
4831	105651582 2827 879503787 982210272 510.057885520066 598.322569723048 81 21 21 1701 35721
4832	105654409 2891 879514196 983697086 510.068507996173 599.963594256735 83 21 21 1743 36603
4833	105657300 3383 878823152 983590952 509.557817148587 599.840390032134 97 21 21 2037 42777
4834	105660683 2794 879414041 983635689 509.967456201082 599.887856595077 80 21 21 1680 35280
4835	105663477 2335 881053689 983082844 511.316022269403 599.402704460947 67 21 21 1407 29547
4836	105665812 2651 879513599 982290189 510.067802851058 598.4212276992 76 21 21 1596 33516
4837	105668463 2685 879937581 982225721 510.471743018331 598.344053405893 77 21 21 1617 33957
4838	105671148 2544 880657946 983066307 511.099831668665 599.377972458334 73 21 21 1533 32193
4839	105673692 2478 880530607 983003001 511.028734312229 599.267354580522 71 21 21 1491 31311
4840	105676170 2127 880114740 982612442 510.729720687247 598.786563573127 61 21 21 1281 26901
4841	105678297 2687 879083219 983688281 509.698673095323 599.951066630985 77 21 21 1617 33957
4842	105680984 2862 879253815 983699514 509.824184579951 599.966952587067 82 21 21 1722 36162
4843	105683846 3803 879416525 983691176 509.970095749331 599.954978784203 109 21 21 2289 48069
4844	105687649 2686 879083776 983468561 509.69907718295 599.736461399265 77 21 21 1617 33957
4845	105690335 2967 879874348 982331016 510.400345657621 598.475550961794 85 21 21 1785 37485
4846	105693302 2548 880093108 982480198 510.697533987884 598.64775434108 73 21 21 1533 32193
4847	105695850 2862 879451652 982474344 510.003605718672 598.640101285479 82 21 21 1722 36162
4848	105698712 2794 879674818 981994966 510.218923583752 598.024038519338 80 22 22 1760 38720
4849	105701506 2756 879512302 983432930 510.06621791751 599.70846462162 79 21 21 1659 34839
4850	105704262 3943 879570453 983622536 510.127565985168 599.872196176732 113 21 21 2373 49833
4851	105708205 3970 880627289 982952072 511.084533530293 599.175690278727 114 21 21 2394 50274
4852	105712175 2760 879017121 983585975 509.663576668723 599.835457692989 79 21 21 1659 34839
4853	105714935 2861 879541814 982692218 510.099874974662 598.874546354348 82 21 21 1722 36162
4854	105717796 2852 878704883 983115306 509.5087618219 599.446715193982 82 21 21 1722 36162
4855	105720648 2691 878715356 982656985 509.513161914515 598.836267175178 77 21 21 1617 33957
4856	105723339 2654 878844631 983418465 509.568565070487 599.697409220433 76 21 21 1596 33516
4857	105725993 2585 881418388 983027730 511.511795894889 599.314886009535 74 21 21 1554 32634
4858	105728578 3036 881087654 983008075 511.336091996113 599.278647826897 87 21 21 1827 38367
4859	105731614 2551 879356473 983630478 509.912791290125 599.881669105294 73 21 21 1533 32193
4860	105734165 2442 880695251 982912922 511.119307808033 599.114471833615 70 21 21 1470 30870
4861	105736607 2512 879454038 983713171 510.006373469181 599.981513121292 72 21 21 1512 31752
4862	105739119 2483 879861253 982073634 510.386395619784 598.144107553615 71 21 21 1491 31311
4863	105741602 2406 880335527 982567723 510.914617280924 598.741255205973 69 21 21 1449 30429
4864	105744008 2620 880726957 983456811 511.135836186399 599.726889261091 75 21 21 1575 33075
4865	105746628 3421 880072456 982481710 510.666111424662 598.649518157157 98 21 21 2058 43218
4866	105750049 2621 881423938 983088996 511.514951175803 599.412584678843 75 21 21 1575 33075
4867	105752670 4436 879116084 983615043 509.721187991142 599.86391469685 127 21 21 2667 56007
4868	105757106 2722 879238153 983404285 509.814249834135 599.686935611391 78 21 21 1638 34398
4869	105759828 2646 880128409 983665702 510.748093213295 599.925163328729 76 21 21 1596 33516
4870	105762474 2830 879415449 983690453 509.968983365841 599.953993876061 81 21 21 1701 35721
4871	105765304 3042 879911207 982353836 510.440858898216 598.504609450691 87 21 21 1827 38367
4872	105768346 2758 878946310 983199277 509.623073692898 599.532272893293 79 21 21 1659 34839
4873	105771104 2934 878908696 983341295 509.602430901616 599.641500715124 84 21 21 1764 37044
4874	105774038 2408 879008467 982908853 509.658234511408 599.109254954617 69 21 21 1449 30429
4875	105776446 2443 879963723 982248198 510.505556073233 598.37251657464 70 21 21 1470 30870
4876	105778889 2622 879386147 983251120 509.940443072851 599.57376354723 75 21 21 1575 33075
4877	105781511 2691 879176915 983432762 509.766047364796 599.708340436672 77 21 21 1617 33957
4878	105784202 2655 879020877 983025231 509.665926310969 599.308130191178 76 21 21 1596 33516
4879	105786857 2970 879370320 982063186 509.925866637336 598.12091017007 85 21 21 1785 37485
4880	105789827 2548 879401984 982701841 509.955376118577 598.881283257189 73 21 21 1533 32193
4881	105792375 2934 879590327 982283497 510.141460166051 598.412275389782 84 21 21 1764 37044
4882	105795309 2368 879265415 982990149 509.833546003439 599.239087177399 68 21 21 1428 29988
4883	105797677 2366 878831122 982662456 509.561815099684 598.842953330739 68 22 22 1496 32912
4884	105800043 2407 878630855 983203554 509.477572276213 599.536366151094 69 21 21 1449 30429
4885	105802450 2818 879054666 983503306 509.680136162593 599.765472980792 81 21 21 1701 35721
4886	105805268 2726 879070420 982484433 509.690233990298 598.653040418811 78 21 21 1638 34398
4887	105807994 2788 879447212 982026927 509.998376619957 598.061809771346 80 21 21 1680 35280
4888	105810782 2407 880012616 983076787 510.572638628193 599.390496722278 69 21 21 1449 30429
4889	105813189 2378 879023158 983252434 509.667492240094 599.574811341391 68 21 21 1428 29988
4890	105815567 2868 879975915 983017661 510.522418558411 599.298192975449 82 22 22 1804 39688
4891	105818435 2690 879872864 983038546 510.398646666909 599.337116556535 77 21 21 1617 33957
4892	105821125 2752 880552353 983006108 511.041782812176 599.274032383924 79 21 21 1659 34839
4893	105823877 2929 878715222 983069183 509.513102595868 599.383387430672 84 21 21 1764 37044
4894	105826806 2755 880244626 983011602 510.855097365585 599.287101573557 79 21 21 1659 34839
4895	105829561 2550 879940075 982266871 510.474654815186 598.399387363051 73 21 21 1533 32193
4896	105832111 2823 878922267 983398556 509.609048083327 599.682919382078 81 21 21 1701 35721
4897	105834934 2618 879865385 982891649 510.390888110309 599.0871088262 75 21 21 1575 33075
4898	105837552 2370 879976495 983671428 510.523088018772 599.931876040141 68 21 21 1428 29988
4899	105839922 2338 878644348 983203537 509.483248180388 599.536341350364 67 21 21 1407 29547
4900	105842260 2863 880732422 983020485 511.139334955738 599.299609569229 82 22 22 1804 39688
4901	105845123 2584 878907202 983272894 509.601640323742 599.591091569461 74 21 21 1554 32634
4902	105847707 2720 878813207 983635479 509.553071937221 599.887618535764 78 21 21 1638 34398
4903	105850427 2933 879766202 982956112 510.295162892316 599.1830120383 84 21 21 1764 37044
4904	105853360 2857 880101293 983716353 510.70658047419 599.985878280235 82 21 21 1722 36162
4905	105856217 2515 878778085 982113412 509.536932880182 598.197777687341 72 21 21 1512 31752
4906	105858732 2999 879175754 982095241 509.765052100172 598.170307353968 86 21 21 1806 37926
4907	105861731 2719 879356285 983455075 509.912604685969 599.725596112822 78 21 21 1638 34398
4908	105864450 2828 879158443 982919108 509.752514993492 599.122923161378 81 21 21 1701 35721
4909	105867278 2397 879094096 983400916 509.706236839691 599.684598570786 69 21 21 1449 30429
4910	105869675 2688 879753092 982225945 510.283361827419 598.344336234374 77 21 21 1617 33957
4911	105872363 2926 880075568 982291893 510.672817453088 598.423569006466 84 22 22 1848 40656
4912	105875289 2789 879871999 982289239 510.397764801843 598.419876270201 80 21 21 1680 35280
4913	105878078 2444 880144060 982577522 510.768333722381 598.749351372696 70 21 21 1470 30870
4914	105880522 2655 878943230 983353634 509.621281315006 599.650639161095 76 21 21 1596 33516
4915	105883177 2791 879911021 982376751 510.440647630231 598.528905361435 80 21 21 1680 35280
4916	105885968 2650 880188970 983657561 510.812148535702 599.91349083453 76 21 21 1596 33516
4917	105888618 2516 880258678 982539519 510.866189427979 598.711400774079 72 21 21 1512 31752
4918	105891134 3071 879644786 983410118 510.192381357276 599.691309248121 88 22 22 1936 42592
4919	105894205 2716 880723037 983707414 511.133589629791 599.973056109519 78 21 21 1638 34398
4920	105896921 3353 880341791 982827506 510.918547355964 599.013145217208 96 21 21 2016 42336
4921	105900274 2300 879111158 982526137 509.717712652418 598.696031327686 66 21 21 1386 29106
4922	105902574 2899 880117168 983079742 510.733516727448 599.396208511679 83 21 21 1743 36603
4923	105905473 2794 879522391 982962320 510.078536997265 599.194035097828 80 21 21 1680 35280
4924	105908267 3070 880033297 982949619 510.607690228262 599.171328915213 88 21 21 1848 38808
4925	105911337 2967 881561699 983085984 511.59443969253 599.408140662632 85 22 22 1870 41140
4926	105914304 2511 879413871 983663408 509.967298191433 599.922432007164 72 21 21 1512 31752
4927	105916815 3174 879686095 982898779 510.228556092368 599.096282523115 91 21 21 1911 40131
4928	105919989 2723 879970793 982676097 510.515166600339 598.859615560514 78 22 22 1716 37752
4929	105922712 2512 879905355 983166087 510.434218548695 599.501845229494 72 21 21 1512 31752
4930	105925224 3144 878781860 982992879 509.538585282848 599.244592106535 90 21 21 1890 39690
4931	105928368 2658 880137132 983558575 510.759288446055 599.81261947095 76 21 21 1596 33516
4932	105931026 3136 879381509 982587726 509.936035780491 598.758148400136 90 21 21 1890 39690
4933	105934162 2864 880130501 983140727 510.751146126079 599.478338492082 82 22 22 1804 39688
4934	105937026 3106 879490448 983706708 510.041478701123 599.972085687416 89 21 21 1869 39249
4935	105940132 2512 879459215 983688713 510.007708548407 599.951634411547 72 21 21 1512 31752
4936	105942644 2399 879108698 983294323 509.716159849853 599.607854643883 69 21 21 1449 30429
4937	105945043 2721 879518595 982076739 510.073813138573 598.150448558272 78 21 21 1638 34398
4938	105947764 3176 879861918 982139674 510.387009086974 598.234966859282 91 21 21 1911 40131
4939	105950940 2623 880526153 982687734 511.025940761649 598.86971199504 75 21 21 1575 33075
4940	105953563 2441 879007383 983268610 509.657513269036 599.587548727722 70 21 21 1470 30870
4941	105956004 2817 878887541 983307309 509.591055784803 599.617940486596 81 21 21 1701 35721
4942	105958821 2938 879885019 983078940 510.411866358672 599.394530750887 84 21 21 1764 37044
4943	105961759 3102 879524753 982459727 510.081483561895 598.623437108721 89 22 22 1958 43076
4944	105964861 2441 879523481 983606599 510.079943061645 599.856785953178 70 21 21 1470 30870
4945	105967302 2303 879659888 982106215 510.20578275704 598.187666860848 66 21 21 1386 29106
4946	105969605 3206 879863290 982291739 510.388501017497 598.423366361877 92 21 21 1932 40572
4947	105972811 2965 880172539 982778371 510.799661310228 598.95964263451 85 21 21 1785 37485
4948	105975776 3415 879713595 982285570 510.25194322878 598.414941824727 98 21 21 2058 43218
4949	105979191 2717 878929131 983254569 509.61288514393 599.576577996009 78 21 21 1638 34398
4950	105981908 2857 880170292 982519842 510.796961729033 598.688424819174 82 21 21 1722 36162
4951	105984765 2377 879855836 982319056 510.380718771133 598.45900857333 68 21 21 1428 29988
4952	105987142 2584 879960862 983239010 510.501414302772 599.563628645342 74 21 21 1554 32634
4953	105989726 2656 880244002 982985267 510.854548729223 599.229250560294 76 21 21 1596 33516
4954	105992382 2513 880159511 983483056 510.78424930993 599.748480292528 72 21 21 1512 31752
4955	105994895 2898 879603364 982263070 510.154763471333 598.394666848478 83 21 21 1743 36603
4956	105997793 3623 881380699 983585456 511.491821207241 599.834912742989 104 22 22 2288 50336
4957	106001416 2857 880131364 982919602 510.752161943787 599.123549812499 82 22 22 1804 39688
4958	106004273 2721 880265027 983447432 510.869303214904 599.719695068304 78 22 22 1716 37752
4959	106006994 3623 879592481 982757061 510.143471297152 598.938839251532 104 22 22 2288 50336
4960	106010617 2612 879906198 982393942 510.435215553857 598.547550516585 75 22 22 1650 36300
4961	106013229 2933 879280926 982920098 509.846396947702 599.124271260209 84 21 21 1764 37044
4962	106016162 2722 879891330 982540104 510.418873513883 598.711984437502 78 21 21 1638 34398
4963	106018884 2861 881291065 983119332 511.445794639348 599.453001495594 82 21 21 1722 36162
4964	106021745 2479 879982867 982630541 510.528777508792 598.807062350903 71 21 21 1491 31311
4965	106024224 2340 879288308 983059457 509.852592655111 599.368329732816 67 21 21 1407 29547
4966	106026564 2687 879581014 983286457 510.132192811715 599.601491694292 77 21 21 1617 33957
4967	106029251 2652 880077229 982512175 510.676566908161 598.679152588606 76 21 21 1596 33516
4968	106031903 2307 880045485 982367225 510.630750277188 598.521663140784 66 21 21 1386 29106
4969	106034210 3033 881231374 983226014 511.415080590006 599.552386067193 87 21 21 1827 38367
4970	106037243 3459 880306891 982796856 510.898584221557 598.97872508097 99 21 21 2079 43659
4971	106040702 2717 879897370 982707619 510.425559848968 598.88824661333 78 21 21 1638 34398
4972	106043419 2586 878713554 983266538 509.512376896427 599.585970903197 74 21 21 1554 32634
4973	106046005 2655 880041645 982242803 510.621782330912 598.364979849736 76 21 21 1596 33516
4974	106048660 2786 879617413 982240272 510.165047922775 598.363776249525 80 21 21 1680 35280
4975	106051446 2650 878874359 983104596 509.584162882313 599.430232110439 76 21 21 1596 33516
4976	106054096 3900 879616250 982347556 510.164086323739 598.496922416297 112 21 21 2352 49392
4977	106057996 2403 881047315 983076044 511.311567409178 599.389175499378 69 21 21 1449 30429
4978	106060399 2547 880054882 982389729 510.648080225096 598.545009159413 73 21 21 1533 32193
4979	106062946 2686 880422668 982545111 510.963875392945 598.717368910737 77 21 21 1617 33957
4980	106065632 2443 878844485 983393383 509.568514378052 599.679349716297 70 21 21 1470 30870
4981	106068075 2507 878983050 982300160 509.643098623724 598.434769368295 72 21 21 1512 31752
4982	106070582 3102 880147737 982589249 510.773199251785 598.759940577442 89 21 21 1869 39249
4983	106073684 2653 880011080 983593783 510.569943937138 599.843358591612 76 21 21 1596 33516
4984	106076337 2370 879437892 982532119 509.988165152804 598.7035146124 68 21 21 1428 29988
4985	106078707 2339 879604507 982929145 510.155949643431 599.137789277192 67 21 21 1407 29547
4986	106081046 2794 878815658 982946209 509.554291262282 599.165637504917 80 21 21 1680 35280
4987	106083840 2966 880884920 983030484 511.224780770673 599.322915994509 85 21 21 1785 37485
4988	106086806 2199 879048492 983635718 509.677265715987 599.887892068906 63 21 21 1323 27783
4989	106089005 2303 880034396 982388667 510.610108972038 598.543597455376 66 21 21 1386 29106
4990	106091308 2925 880115661 982638343 510.731301632531 598.81623263619 84 21 21 1764 37044
4991	106094233 2758 878917654 983149387 509.606455802258 599.484934756374 79 21 21 1659 34839
4992	106096991 2647 879638623 982415387 510.185892265795 598.567533143657 76 21 21 1596 33516
4993	106099638 2196 880216685 982962940 510.838127603268 599.195260632364 63 21 21 1323 27783
4994	106101834 3001 879240972 983644553 509.816621805502 599.896155327914 86 21 21 1806 37926
4995	106104835 3282 879123270 983191603 509.726215345944 599.525298319822 94 21 21 1974 41454
4996	106108117 3104 879683835 982927786 510.226772954281 599.135470846147 89 21 21 1869 39249
4997	106111221 2545 880248983 983695149 510.858558581223 599.960830378164 73 21 21 1533 32193
4998	106113766 2781 879502895 982115945 510.056863428676 598.20134515385 80 22 22 1760 38720
4999	106116547 2930 879422002 982643542 509.975724026141 598.822159092235 84 21 21 1764 37044
5187	106119477 1702 878874795 983264429 509.584379721003 599.584379721003 46 1730 1775 80615 141285895
5230	106121179 1665 880334183 982731311 510.913907088454 598.913907088454 45 2256 2300 102510 233525370
5781	106122844 68 879300734 901595298 509.863207366693 529.727090322558 2 8 9 17 145
6122	106122912 34 891748067 891748067 521.420166685131 521.420166685131 1 9 9 9 81
6130	106122946 35 973975498 973975498 592.519622348251 592.519622348251 1 10 10 10 100
6251	106122981 35 915976671 915976671 541.500014623939 541.500014623939 1 10 10 10 100
6298	106123016 34 969467397 969467397 588.960213031672 588.960213031672 1 9 9 9 81
6333	106123050 34 965358900 965358900 586.153065388851 586.153065388851 1 9 9 9 81
6468	106123084 35 901855700 901855700 529.967644577004 529.967644577004 1 10 10 10 100
6622	106123119 1665 880675187 982908497 511.108733376371 599.108733376371 45 3804 3848 172170 658730010
6674	106124784 34 974358082 974358082 593.024238071093 593.024238071093 1 8 8 8 64
6963	106124818 34 937141222 937141222 559.435437109204 559.435437109204 1 9 9 9 81
7011	106124852 35 952111955 952111955 571.744777392636 571.744777392636 1 10 10 10 100
7063	106124887 69 951954937 964817656 571.546391210286 585.665545977679 2 9 10 19 181
7196	106124956 35 973602521 973602521 592.333244500078 592.333244500078 1 10 10 10 100
7322	106124991 35 879621573 879621573 510.169268202757 510.169268202757 1 10 10 10 100
7378	106125026 35 891522857 891522857 521.274436215811 521.274436215811 1 10 10 10 100
7413	106125061 35 915894096 915894096 541.322681475755 541.322681475755 1 10 10 10 100
7440	106125096 35 964635796 964635796 585.498640667732 585.498640667732 1 10 10 10 100
7494	106125131 35 937426380 937426380 559.722968626193 559.722968626193 1 10 10 10 100
7709	106125166 34 969752319 969752319 589.183175132369 589.183175132369 1 9 9 9 81
7874	106125200 34 974249276 974249276 592.793643010594 592.793643010594 1 9 9 9 81
9080	106125234 35 965539002 965539002 586.313821830545 586.313821830545 1 10 10 10 100

