file 10082860 1533462287                                        
version 2
run General-1-20180805-11:40:35-26305
attr configname General
attr datetime 20180805-11:40:35
attr experiment General
attr inifile floodsub.ini
attr iterationvars $0=500
attr iterationvarsf 500-
attr measurement $0=500
attr network sharding.FloodSubNetwork
attr processid 26305
attr repetition 0
attr replication #0
attr resultdir results-floodsub
attr runnumber 1
attr seedset 1
param *Network.nodeCount 500
param *Network.gossipRate 10.0Hz
param *Network.nodes[*].source.active true
param *Network.nodes[*].source.startTime 20s
param *Network.nodes[*].source.stopTime 580s
param *Network.nodes[*].lazyNotifier.notificationInterval 0.1s
param *Network.nodes[*].missingTracker.waitTime 1s
param *Network.nodes[*].connectionManager.numRandomNeighbors 5
param *Network.nodes[*].connectionManager.numNearNeighbors 5
param *Network.nodes[*].connectionManager.passiveListSize 20
param *Network.nodes[*].connectionManager.contactNodes "\"0 1 2\""
param *Network.nodes[*].connectionManager.activeHeartbeatInterval 2.0
param *Network.nodes[*].connectionManager.joinTTL 1
param *Network.nodes[*].connectionManager.forwardJoinTTL 1
param *Network.nodes[*].connectionManager.shuffleInterval 2.0
param *Network.nodes[*].connectionManager.activeShufflingSize 5
param *Network.nodes[*].connectionManager.passiveShufflingSize 5
param *Network.nodes[*].connectionManager.shuffleTTL 1

vector 0 FloodSubNetwork.nodes[38].connectionManager passiveListUpdate:vector ETV
vector 1 FloodSubNetwork.nodes[246].connectionManager passiveListUpdate:vector ETV
vector 2 FloodSubNetwork.nodes[50].connectionManager passiveListUpdate:vector ETV
vector 3 FloodSubNetwork.nodes[166].connectionManager passiveListUpdate:vector ETV
vector 4 FloodSubNetwork.nodes[121].connectionManager passiveListUpdate:vector ETV
vector 5 FloodSubNetwork.nodes[149].connectionManager passiveListUpdate:vector ETV
vector 6 FloodSubNetwork.nodes[344].connectionManager passiveListUpdate:vector ETV
vector 7 FloodSubNetwork.nodes[478].connectionManager passiveListUpdate:vector ETV
vector 8 FloodSubNetwork.nodes[44].connectionManager passiveListUpdate:vector ETV
vector 9 FloodSubNetwork.nodes[213].connectionManager passiveListUpdate:vector ETV
vector 10 FloodSubNetwork.nodes[142].connectionManager passiveListUpdate:vector ETV
vector 11 FloodSubNetwork.nodes[448].connectionManager passiveListUpdate:vector ETV
vector 12 FloodSubNetwork.nodes[28].connectionManager passiveListUpdate:vector ETV
vector 13 FloodSubNetwork.nodes[393].connectionManager passiveListUpdate:vector ETV
vector 14 FloodSubNetwork.nodes[332].connectionManager passiveListUpdate:vector ETV
vector 15 FloodSubNetwork.nodes[153].connectionManager passiveListUpdate:vector ETV
vector 16 FloodSubNetwork.nodes[220].connectionManager passiveListUpdate:vector ETV
vector 17 FloodSubNetwork.nodes[443].connectionManager passiveListUpdate:vector ETV
vector 18 FloodSubNetwork.nodes[106].connectionManager passiveListUpdate:vector ETV
vector 19 FloodSubNetwork.nodes[283].connectionManager passiveListUpdate:vector ETV
vector 20 FloodSubNetwork.nodes[114].connectionManager passiveListUpdate:vector ETV
vector 21 FloodSubNetwork.nodes[119].connectionManager passiveListUpdate:vector ETV
vector 22 FloodSubNetwork.nodes[181].connectionManager passiveListUpdate:vector ETV
vector 23 FloodSubNetwork.nodes[27].connectionManager passiveListUpdate:vector ETV
vector 24 FloodSubNetwork.nodes[297].connectionManager passiveListUpdate:vector ETV
vector 25 FloodSubNetwork.nodes[335].connectionManager passiveListUpdate:vector ETV
vector 26 FloodSubNetwork.nodes[475].connectionManager passiveListUpdate:vector ETV
vector 27 FloodSubNetwork.nodes[374].connectionManager passiveListUpdate:vector ETV
vector 28 FloodSubNetwork.nodes[123].connectionManager passiveListUpdate:vector ETV
vector 29 FloodSubNetwork.nodes[326].connectionManager passiveListUpdate:vector ETV
vector 30 FloodSubNetwork.nodes[184].connectionManager passiveListUpdate:vector ETV
vector 31 FloodSubNetwork.nodes[499].connectionManager passiveListUpdate:vector ETV
vector 32 FloodSubNetwork.nodes[128].connectionManager passiveListUpdate:vector ETV
vector 33 FloodSubNetwork.nodes[150].connectionManager passiveListUpdate:vector ETV
vector 34 FloodSubNetwork.nodes[129].connectionManager passiveListUpdate:vector ETV
vector 35 FloodSubNetwork.nodes[243].connectionManager passiveListUpdate:vector ETV
vector 36 FloodSubNetwork.nodes[4].connectionManager passiveListUpdate:vector ETV
vector 37 FloodSubNetwork.nodes[177].connectionManager passiveListUpdate:vector ETV
vector 38 FloodSubNetwork.nodes[154].connectionManager passiveListUpdate:vector ETV
vector 39 FloodSubNetwork.nodes[22].connectionManager passiveListUpdate:vector ETV
vector 40 FloodSubNetwork.nodes[48].connectionManager passiveListUpdate:vector ETV
vector 41 FloodSubNetwork.nodes[233].connectionManager passiveListUpdate:vector ETV
vector 42 FloodSubNetwork.nodes[120].connectionManager passiveListUpdate:vector ETV
vector 43 FloodSubNetwork.nodes[183].connectionManager passiveListUpdate:vector ETV
vector 44 FloodSubNetwork.nodes[494].connectionManager passiveListUpdate:vector ETV
vector 45 FloodSubNetwork.nodes[269].connectionManager passiveListUpdate:vector ETV
vector 46 FloodSubNetwork.nodes[277].connectionManager passiveListUpdate:vector ETV
vector 47 FloodSubNetwork.nodes[196].connectionManager passiveListUpdate:vector ETV
vector 48 FloodSubNetwork.nodes[271].connectionManager passiveListUpdate:vector ETV
vector 49 FloodSubNetwork.nodes[309].connectionManager passiveListUpdate:vector ETV
vector 50 FloodSubNetwork.nodes[35].connectionManager passiveListUpdate:vector ETV
vector 51 FloodSubNetwork.nodes[299].connectionManager passiveListUpdate:vector ETV
vector 52 FloodSubNetwork.nodes[247].connectionManager passiveListUpdate:vector ETV
vector 53 FloodSubNetwork.nodes[276].connectionManager passiveListUpdate:vector ETV
vector 54 FloodSubNetwork.nodes[384].connectionManager passiveListUpdate:vector ETV
vector 55 FloodSubNetwork.nodes[425].connectionManager passiveListUpdate:vector ETV
vector 56 FloodSubNetwork.nodes[312].connectionManager passiveListUpdate:vector ETV
vector 57 FloodSubNetwork.nodes[472].connectionManager passiveListUpdate:vector ETV
vector 58 FloodSubNetwork.nodes[383].connectionManager passiveListUpdate:vector ETV
vector 59 FloodSubNetwork.nodes[216].connectionManager passiveListUpdate:vector ETV
vector 60 FloodSubNetwork.nodes[353].connectionManager passiveListUpdate:vector ETV
vector 61 FloodSubNetwork.nodes[219].connectionManager passiveListUpdate:vector ETV
vector 62 FloodSubNetwork.nodes[5].connectionManager passiveListUpdate:vector ETV
vector 63 FloodSubNetwork.nodes[141].connectionManager passiveListUpdate:vector ETV
vector 64 FloodSubNetwork.nodes[361].connectionManager passiveListUpdate:vector ETV
vector 65 FloodSubNetwork.nodes[215].connectionManager passiveListUpdate:vector ETV
vector 66 FloodSubNetwork.nodes[212].connectionManager passiveListUpdate:vector ETV
vector 67 FloodSubNetwork.nodes[101].connectionManager passiveListUpdate:vector ETV
vector 68 FloodSubNetwork.nodes[122].connectionManager passiveListUpdate:vector ETV
vector 69 FloodSubNetwork.nodes[408].connectionManager passiveListUpdate:vector ETV
vector 70 FloodSubNetwork.nodes[160].connectionManager passiveListUpdate:vector ETV
vector 71 FloodSubNetwork.nodes[339].connectionManager passiveListUpdate:vector ETV
vector 72 FloodSubNetwork.nodes[240].connectionManager passiveListUpdate:vector ETV
vector 73 FloodSubNetwork.nodes[284].connectionManager passiveListUpdate:vector ETV
vector 74 FloodSubNetwork.nodes[313].connectionManager passiveListUpdate:vector ETV
vector 75 FloodSubNetwork.nodes[322].connectionManager passiveListUpdate:vector ETV
vector 76 FloodSubNetwork.nodes[371].connectionManager passiveListUpdate:vector ETV
vector 77 FloodSubNetwork.nodes[433].connectionManager passiveListUpdate:vector ETV
vector 78 FloodSubNetwork.nodes[14].connectionManager passiveListUpdate:vector ETV
vector 79 FloodSubNetwork.nodes[278].connectionManager passiveListUpdate:vector ETV
vector 80 FloodSubNetwork.nodes[53].connectionManager passiveListUpdate:vector ETV
vector 81 FloodSubNetwork.nodes[320].connectionManager passiveListUpdate:vector ETV
vector 82 FloodSubNetwork.nodes[352].connectionManager passiveListUpdate:vector ETV
vector 83 FloodSubNetwork.nodes[6].connectionManager passiveListUpdate:vector ETV
vector 84 FloodSubNetwork.nodes[65].connectionManager passiveListUpdate:vector ETV
vector 85 FloodSubNetwork.nodes[179].connectionManager passiveListUpdate:vector ETV
vector 86 FloodSubNetwork.nodes[71].connectionManager passiveListUpdate:vector ETV
vector 87 FloodSubNetwork.nodes[265].connectionManager passiveListUpdate:vector ETV
vector 88 FloodSubNetwork.nodes[190].connectionManager passiveListUpdate:vector ETV
vector 89 FloodSubNetwork.nodes[492].connectionManager passiveListUpdate:vector ETV
vector 90 FloodSubNetwork.nodes[465].connectionManager passiveListUpdate:vector ETV
vector 91 FloodSubNetwork.nodes[369].connectionManager passiveListUpdate:vector ETV
vector 92 FloodSubNetwork.nodes[402].connectionManager passiveListUpdate:vector ETV
vector 93 FloodSubNetwork.nodes[273].connectionManager passiveListUpdate:vector ETV
vector 94 FloodSubNetwork.nodes[441].connectionManager passiveListUpdate:vector ETV
vector 95 FloodSubNetwork.nodes[55].connectionManager passiveListUpdate:vector ETV
vector 96 FloodSubNetwork.nodes[349].connectionManager passiveListUpdate:vector ETV
vector 97 FloodSubNetwork.nodes[268].connectionManager passiveListUpdate:vector ETV
vector 98 FloodSubNetwork.nodes[486].connectionManager passiveListUpdate:vector ETV
vector 99 FloodSubNetwork.nodes[224].connectionManager passiveListUpdate:vector ETV
vector 100 FloodSubNetwork.nodes[84].connectionManager passiveListUpdate:vector ETV
vector 101 FloodSubNetwork.nodes[206].connectionManager passiveListUpdate:vector ETV
vector 102 FloodSubNetwork.nodes[252].connectionManager passiveListUpdate:vector ETV
vector 103 FloodSubNetwork.nodes[60].connectionManager passiveListUpdate:vector ETV
vector 104 FloodSubNetwork.nodes[292].connectionManager passiveListUpdate:vector ETV
vector 105 FloodSubNetwork.nodes[419].connectionManager passiveListUpdate:vector ETV
vector 106 FloodSubNetwork.nodes[110].connectionManager passiveListUpdate:vector ETV
vector 107 FloodSubNetwork.nodes[442].connectionManager passiveListUpdate:vector ETV
vector 108 FloodSubNetwork.nodes[12].connectionManager passiveListUpdate:vector ETV
vector 109 FloodSubNetwork.nodes[423].connectionManager passiveListUpdate:vector ETV
vector 110 FloodSubNetwork.nodes[205].connectionManager passiveListUpdate:vector ETV
vector 111 FloodSubNetwork.nodes[49].connectionManager passiveListUpdate:vector ETV
vector 112 FloodSubNetwork.nodes[288].connectionManager passiveListUpdate:vector ETV
vector 113 FloodSubNetwork.nodes[387].connectionManager passiveListUpdate:vector ETV
vector 114 FloodSubNetwork.nodes[245].connectionManager passiveListUpdate:vector ETV
vector 115 FloodSubNetwork.nodes[459].connectionManager passiveListUpdate:vector ETV
vector 116 FloodSubNetwork.nodes[165].connectionManager passiveListUpdate:vector ETV
vector 117 FloodSubNetwork.nodes[314].connectionManager passiveListUpdate:vector ETV
vector 118 FloodSubNetwork.nodes[411].connectionManager passiveListUpdate:vector ETV
vector 119 FloodSubNetwork.nodes[421].connectionManager passiveListUpdate:vector ETV
vector 120 FloodSubNetwork.nodes[394].connectionManager passiveListUpdate:vector ETV
vector 121 FloodSubNetwork.nodes[238].connectionManager passiveListUpdate:vector ETV
vector 122 FloodSubNetwork.nodes[304].connectionManager passiveListUpdate:vector ETV
vector 123 FloodSubNetwork.nodes[204].connectionManager passiveListUpdate:vector ETV
vector 124 FloodSubNetwork.nodes[437].connectionManager passiveListUpdate:vector ETV
vector 125 FloodSubNetwork.nodes[30].connectionManager passiveListUpdate:vector ETV
vector 126 FloodSubNetwork.nodes[325].connectionManager passiveListUpdate:vector ETV
vector 127 FloodSubNetwork.nodes[89].connectionManager passiveListUpdate:vector ETV
vector 128 FloodSubNetwork.nodes[161].connectionManager passiveListUpdate:vector ETV
vector 129 FloodSubNetwork.nodes[422].connectionManager passiveListUpdate:vector ETV
vector 130 FloodSubNetwork.nodes[328].connectionManager passiveListUpdate:vector ETV
vector 131 FloodSubNetwork.nodes[180].connectionManager passiveListUpdate:vector ETV
vector 132 FloodSubNetwork.nodes[317].connectionManager passiveListUpdate:vector ETV
vector 133 FloodSubNetwork.nodes[336].connectionManager passiveListUpdate:vector ETV
vector 134 FloodSubNetwork.nodes[172].connectionManager passiveListUpdate:vector ETV
vector 135 FloodSubNetwork.nodes[42].connectionManager passiveListUpdate:vector ETV
vector 136 FloodSubNetwork.nodes[406].connectionManager passiveListUpdate:vector ETV
vector 137 FloodSubNetwork.nodes[33].connectionManager passiveListUpdate:vector ETV
vector 138 FloodSubNetwork.nodes[10].connectionManager passiveListUpdate:vector ETV
vector 139 FloodSubNetwork.nodes[316].connectionManager passiveListUpdate:vector ETV
vector 140 FloodSubNetwork.nodes[372].connectionManager passiveListUpdate:vector ETV
vector 141 FloodSubNetwork.nodes[473].connectionManager passiveListUpdate:vector ETV
vector 142 FloodSubNetwork.nodes[147].connectionManager passiveListUpdate:vector ETV
vector 143 FloodSubNetwork.nodes[303].connectionManager passiveListUpdate:vector ETV
vector 144 FloodSubNetwork.nodes[201].connectionManager passiveListUpdate:vector ETV
vector 145 FloodSubNetwork.nodes[399].connectionManager passiveListUpdate:vector ETV
vector 146 FloodSubNetwork.nodes[254].connectionManager passiveListUpdate:vector ETV
vector 147 FloodSubNetwork.nodes[174].connectionManager passiveListUpdate:vector ETV
vector 148 FloodSubNetwork.nodes[99].connectionManager passiveListUpdate:vector ETV
vector 149 FloodSubNetwork.nodes[125].connectionManager passiveListUpdate:vector ETV
vector 150 FloodSubNetwork.nodes[449].connectionManager passiveListUpdate:vector ETV
vector 151 FloodSubNetwork.nodes[98].connectionManager passiveListUpdate:vector ETV
vector 152 FloodSubNetwork.nodes[289].connectionManager passiveListUpdate:vector ETV
vector 153 FloodSubNetwork.nodes[488].connectionManager passiveListUpdate:vector ETV
vector 154 FloodSubNetwork.nodes[428].connectionManager passiveListUpdate:vector ETV
vector 155 FloodSubNetwork.nodes[392].connectionManager passiveListUpdate:vector ETV
vector 156 FloodSubNetwork.nodes[94].connectionManager passiveListUpdate:vector ETV
vector 157 FloodSubNetwork.nodes[409].connectionManager passiveListUpdate:vector ETV
vector 158 FloodSubNetwork.nodes[291].connectionManager passiveListUpdate:vector ETV
vector 159 FloodSubNetwork.nodes[191].connectionManager passiveListUpdate:vector ETV
vector 160 FloodSubNetwork.nodes[66].connectionManager passiveListUpdate:vector ETV
vector 161 FloodSubNetwork.nodes[92].connectionManager passiveListUpdate:vector ETV
vector 162 FloodSubNetwork.nodes[267].connectionManager passiveListUpdate:vector ETV
vector 163 FloodSubNetwork.nodes[438].connectionManager passiveListUpdate:vector ETV
vector 164 FloodSubNetwork.nodes[237].connectionManager passiveListUpdate:vector ETV
vector 165 FloodSubNetwork.nodes[137].connectionManager passiveListUpdate:vector ETV
vector 166 FloodSubNetwork.nodes[64].connectionManager passiveListUpdate:vector ETV
vector 167 FloodSubNetwork.nodes[75].connectionManager passiveListUpdate:vector ETV
vector 168 FloodSubNetwork.nodes[306].connectionManager passiveListUpdate:vector ETV
vector 169 FloodSubNetwork.nodes[260].connectionManager passiveListUpdate:vector ETV
vector 170 FloodSubNetwork.nodes[479].connectionManager passiveListUpdate:vector ETV
vector 171 FloodSubNetwork.nodes[103].connectionManager passiveListUpdate:vector ETV
vector 172 FloodSubNetwork.nodes[214].connectionManager passiveListUpdate:vector ETV
vector 173 FloodSubNetwork.nodes[358].connectionManager passiveListUpdate:vector ETV
vector 174 FloodSubNetwork.nodes[279].connectionManager passiveListUpdate:vector ETV
vector 175 FloodSubNetwork.nodes[178].connectionManager passiveListUpdate:vector ETV
vector 176 FloodSubNetwork.nodes[133].connectionManager passiveListUpdate:vector ETV
vector 177 FloodSubNetwork.nodes[315].connectionManager passiveListUpdate:vector ETV
vector 178 FloodSubNetwork.nodes[221].connectionManager passiveListUpdate:vector ETV
vector 179 FloodSubNetwork.nodes[404].connectionManager passiveListUpdate:vector ETV
vector 180 FloodSubNetwork.nodes[365].connectionManager passiveListUpdate:vector ETV
vector 181 FloodSubNetwork.nodes[295].connectionManager passiveListUpdate:vector ETV
vector 182 FloodSubNetwork.nodes[403].connectionManager passiveListUpdate:vector ETV
vector 183 FloodSubNetwork.nodes[146].connectionManager passiveListUpdate:vector ETV
vector 184 FloodSubNetwork.nodes[152].connectionManager passiveListUpdate:vector ETV
vector 185 FloodSubNetwork.nodes[439].connectionManager passiveListUpdate:vector ETV
vector 186 FloodSubNetwork.nodes[170].connectionManager passiveListUpdate:vector ETV
vector 187 FloodSubNetwork.nodes[58].connectionManager passiveListUpdate:vector ETV
vector 188 FloodSubNetwork.nodes[381].connectionManager passiveListUpdate:vector ETV
vector 189 FloodSubNetwork.nodes[79].connectionManager passiveListUpdate:vector ETV
vector 190 FloodSubNetwork.nodes[250].connectionManager passiveListUpdate:vector ETV
vector 191 FloodSubNetwork.nodes[228].connectionManager passiveListUpdate:vector ETV
vector 192 FloodSubNetwork.nodes[264].connectionManager passiveListUpdate:vector ETV
vector 193 FloodSubNetwork.nodes[16].connectionManager passiveListUpdate:vector ETV
vector 194 FloodSubNetwork.nodes[97].connectionManager passiveListUpdate:vector ETV
vector 195 FloodSubNetwork.nodes[420].connectionManager passiveListUpdate:vector ETV
vector 196 FloodSubNetwork.nodes[111].connectionManager passiveListUpdate:vector ETV
vector 197 FloodSubNetwork.nodes[396].connectionManager passiveListUpdate:vector ETV
vector 198 FloodSubNetwork.nodes[458].connectionManager passiveListUpdate:vector ETV
vector 199 FloodSubNetwork.nodes[173].connectionManager passiveListUpdate:vector ETV
vector 200 FloodSubNetwork.nodes[145].connectionManager passiveListUpdate:vector ETV
vector 201 FloodSubNetwork.nodes[230].connectionManager passiveListUpdate:vector ETV
vector 202 FloodSubNetwork.nodes[231].connectionManager passiveListUpdate:vector ETV
vector 203 FloodSubNetwork.nodes[261].connectionManager passiveListUpdate:vector ETV
vector 204 FloodSubNetwork.nodes[331].connectionManager passiveListUpdate:vector ETV
vector 205 FloodSubNetwork.nodes[90].connectionManager passiveListUpdate:vector ETV
vector 206 FloodSubNetwork.nodes[487].connectionManager passiveListUpdate:vector ETV
vector 207 FloodSubNetwork.nodes[100].connectionManager passiveListUpdate:vector ETV
vector 208 FloodSubNetwork.nodes[155].connectionManager passiveListUpdate:vector ETV
vector 209 FloodSubNetwork.nodes[319].connectionManager passiveListUpdate:vector ETV
vector 210 FloodSubNetwork.nodes[385].connectionManager passiveListUpdate:vector ETV
vector 211 FloodSubNetwork.nodes[463].connectionManager passiveListUpdate:vector ETV
vector 212 FloodSubNetwork.nodes[235].connectionManager passiveListUpdate:vector ETV
vector 213 FloodSubNetwork.nodes[26].connectionManager passiveListUpdate:vector ETV
vector 214 FloodSubNetwork.nodes[182].connectionManager passiveListUpdate:vector ETV
vector 215 FloodSubNetwork.nodes[164].connectionManager passiveListUpdate:vector ETV
vector 216 FloodSubNetwork.nodes[45].connectionManager passiveListUpdate:vector ETV
vector 217 FloodSubNetwork.nodes[77].connectionManager passiveListUpdate:vector ETV
vector 218 FloodSubNetwork.nodes[318].connectionManager passiveListUpdate:vector ETV
vector 219 FloodSubNetwork.nodes[202].connectionManager passiveListUpdate:vector ETV
vector 220 FloodSubNetwork.nodes[410].connectionManager passiveListUpdate:vector ETV
vector 221 FloodSubNetwork.nodes[132].connectionManager passiveListUpdate:vector ETV
vector 222 FloodSubNetwork.nodes[59].connectionManager passiveListUpdate:vector ETV
vector 223 FloodSubNetwork.nodes[270].connectionManager passiveListUpdate:vector ETV
vector 224 FloodSubNetwork.nodes[74].connectionManager passiveListUpdate:vector ETV
vector 225 FloodSubNetwork.nodes[388].connectionManager passiveListUpdate:vector ETV
vector 226 FloodSubNetwork.nodes[390].connectionManager passiveListUpdate:vector ETV
vector 227 FloodSubNetwork.nodes[185].connectionManager passiveListUpdate:vector ETV
vector 228 FloodSubNetwork.nodes[301].connectionManager passiveListUpdate:vector ETV
vector 229 FloodSubNetwork.nodes[135].connectionManager passiveListUpdate:vector ETV
vector 230 FloodSubNetwork.nodes[157].connectionManager passiveListUpdate:vector ETV
vector 231 FloodSubNetwork.nodes[363].connectionManager passiveListUpdate:vector ETV
vector 232 FloodSubNetwork.nodes[337].connectionManager passiveListUpdate:vector ETV
vector 233 FloodSubNetwork.nodes[63].connectionManager passiveListUpdate:vector ETV
vector 234 FloodSubNetwork.nodes[483].connectionManager passiveListUpdate:vector ETV
vector 235 FloodSubNetwork.nodes[144].connectionManager passiveListUpdate:vector ETV
vector 236 FloodSubNetwork.nodes[407].connectionManager passiveListUpdate:vector ETV
vector 237 FloodSubNetwork.nodes[116].connectionManager passiveListUpdate:vector ETV
vector 238 FloodSubNetwork.nodes[290].connectionManager passiveListUpdate:vector ETV
vector 239 FloodSubNetwork.nodes[197].connectionManager passiveListUpdate:vector ETV
vector 240 FloodSubNetwork.nodes[236].connectionManager passiveListUpdate:vector ETV
vector 241 FloodSubNetwork.nodes[117].connectionManager passiveListUpdate:vector ETV
vector 242 FloodSubNetwork.nodes[389].connectionManager passiveListUpdate:vector ETV
vector 243 FloodSubNetwork.nodes[68].connectionManager passiveListUpdate:vector ETV
vector 244 FloodSubNetwork.nodes[457].connectionManager passiveListUpdate:vector ETV
vector 245 FloodSubNetwork.nodes[257].connectionManager passiveListUpdate:vector ETV
vector 246 FloodSubNetwork.nodes[19].connectionManager passiveListUpdate:vector ETV
vector 247 FloodSubNetwork.nodes[87].connectionManager passiveListUpdate:vector ETV
vector 248 FloodSubNetwork.nodes[294].connectionManager passiveListUpdate:vector ETV
vector 249 FloodSubNetwork.nodes[34].connectionManager passiveListUpdate:vector ETV
vector 250 FloodSubNetwork.nodes[140].connectionManager passiveListUpdate:vector ETV
vector 251 FloodSubNetwork.nodes[258].connectionManager passiveListUpdate:vector ETV
vector 252 FloodSubNetwork.nodes[426].connectionManager passiveListUpdate:vector ETV
vector 253 FloodSubNetwork.nodes[287].connectionManager passiveListUpdate:vector ETV
vector 254 FloodSubNetwork.nodes[17].connectionManager passiveListUpdate:vector ETV
vector 255 FloodSubNetwork.nodes[256].connectionManager passiveListUpdate:vector ETV
vector 256 FloodSubNetwork.nodes[323].connectionManager passiveListUpdate:vector ETV
vector 257 FloodSubNetwork.nodes[462].connectionManager passiveListUpdate:vector ETV
vector 258 FloodSubNetwork.nodes[455].connectionManager passiveListUpdate:vector ETV
vector 259 FloodSubNetwork.nodes[380].connectionManager passiveListUpdate:vector ETV
vector 260 FloodSubNetwork.nodes[211].connectionManager passiveListUpdate:vector ETV
vector 261 FloodSubNetwork.nodes[95].connectionManager passiveListUpdate:vector ETV
vector 262 FloodSubNetwork.nodes[207].connectionManager passiveListUpdate:vector ETV
vector 263 FloodSubNetwork.nodes[210].connectionManager passiveListUpdate:vector ETV
vector 264 FloodSubNetwork.nodes[46].connectionManager passiveListUpdate:vector ETV
vector 265 FloodSubNetwork.nodes[460].connectionManager passiveListUpdate:vector ETV
vector 266 FloodSubNetwork.nodes[395].connectionManager passiveListUpdate:vector ETV
vector 267 FloodSubNetwork.nodes[43].connectionManager passiveListUpdate:vector ETV
vector 268 FloodSubNetwork.nodes[91].connectionManager passiveListUpdate:vector ETV
vector 269 FloodSubNetwork.nodes[7].connectionManager passiveListUpdate:vector ETV
vector 270 FloodSubNetwork.nodes[347].connectionManager passiveListUpdate:vector ETV
vector 271 FloodSubNetwork.nodes[222].connectionManager passiveListUpdate:vector ETV
vector 272 FloodSubNetwork.nodes[158].connectionManager passiveListUpdate:vector ETV
vector 273 FloodSubNetwork.nodes[169].connectionManager passiveListUpdate:vector ETV
vector 274 FloodSubNetwork.nodes[450].connectionManager passiveListUpdate:vector ETV
vector 275 FloodSubNetwork.nodes[298].connectionManager passiveListUpdate:vector ETV
vector 276 FloodSubNetwork.nodes[379].connectionManager passiveListUpdate:vector ETV
vector 277 FloodSubNetwork.nodes[405].connectionManager passiveListUpdate:vector ETV
vector 278 FloodSubNetwork.nodes[72].connectionManager passiveListUpdate:vector ETV
vector 279 FloodSubNetwork.nodes[424].connectionManager passiveListUpdate:vector ETV
vector 280 FloodSubNetwork.nodes[470].connectionManager passiveListUpdate:vector ETV
vector 281 FloodSubNetwork.nodes[468].connectionManager passiveListUpdate:vector ETV
vector 282 FloodSubNetwork.nodes[431].connectionManager passiveListUpdate:vector ETV
vector 283 FloodSubNetwork.nodes[351].connectionManager passiveListUpdate:vector ETV
vector 284 FloodSubNetwork.nodes[255].connectionManager passiveListUpdate:vector ETV
vector 285 FloodSubNetwork.nodes[41].connectionManager passiveListUpdate:vector ETV
vector 286 FloodSubNetwork.nodes[253].connectionManager passiveListUpdate:vector ETV
vector 287 FloodSubNetwork.nodes[143].connectionManager passiveListUpdate:vector ETV
vector 288 FloodSubNetwork.nodes[357].connectionManager passiveListUpdate:vector ETV
vector 289 FloodSubNetwork.nodes[401].connectionManager passiveListUpdate:vector ETV
vector 290 FloodSubNetwork.nodes[467].connectionManager passiveListUpdate:vector ETV
vector 291 FloodSubNetwork.nodes[109].connectionManager passiveListUpdate:vector ETV
vector 292 FloodSubNetwork.nodes[307].connectionManager passiveListUpdate:vector ETV
vector 293 FloodSubNetwork.nodes[194].connectionManager passiveListUpdate:vector ETV
vector 294 FloodSubNetwork.nodes[482].connectionManager passiveListUpdate:vector ETV
vector 295 FloodSubNetwork.nodes[54].connectionManager passiveListUpdate:vector ETV
vector 296 FloodSubNetwork.nodes[248].connectionManager passiveListUpdate:vector ETV
vector 297 FloodSubNetwork.nodes[18].connectionManager passiveListUpdate:vector ETV
vector 298 FloodSubNetwork.nodes[296].connectionManager passiveListUpdate:vector ETV
vector 299 FloodSubNetwork.nodes[469].connectionManager passiveListUpdate:vector ETV
vector 300 FloodSubNetwork.nodes[134].connectionManager passiveListUpdate:vector ETV
vector 301 FloodSubNetwork.nodes[105].connectionManager passiveListUpdate:vector ETV
vector 302 FloodSubNetwork.nodes[375].connectionManager passiveListUpdate:vector ETV
vector 303 FloodSubNetwork.nodes[31].connectionManager passiveListUpdate:vector ETV
vector 304 FloodSubNetwork.nodes[171].connectionManager passiveListUpdate:vector ETV
vector 305 FloodSubNetwork.nodes[391].connectionManager passiveListUpdate:vector ETV
vector 306 FloodSubNetwork.nodes[57].connectionManager passiveListUpdate:vector ETV
vector 307 FloodSubNetwork.nodes[82].connectionManager passiveListUpdate:vector ETV
vector 308 FloodSubNetwork.nodes[13].connectionManager passiveListUpdate:vector ETV
vector 309 FloodSubNetwork.nodes[83].connectionManager passiveListUpdate:vector ETV
vector 310 FloodSubNetwork.nodes[227].connectionManager passiveListUpdate:vector ETV
vector 311 FloodSubNetwork.nodes[127].connectionManager passiveListUpdate:vector ETV
vector 312 FloodSubNetwork.nodes[242].connectionManager passiveListUpdate:vector ETV
vector 313 FloodSubNetwork.nodes[52].connectionManager passiveListUpdate:vector ETV
vector 314 FloodSubNetwork.nodes[416].connectionManager passiveListUpdate:vector ETV
vector 315 FloodSubNetwork.nodes[355].connectionManager passiveListUpdate:vector ETV
vector 316 FloodSubNetwork.nodes[186].connectionManager passiveListUpdate:vector ETV
vector 317 FloodSubNetwork.nodes[112].connectionManager passiveListUpdate:vector ETV
vector 318 FloodSubNetwork.nodes[485].connectionManager passiveListUpdate:vector ETV
vector 319 FloodSubNetwork.nodes[489].connectionManager passiveListUpdate:vector ETV
vector 320 FloodSubNetwork.nodes[176].connectionManager passiveListUpdate:vector ETV
vector 321 FloodSubNetwork.nodes[330].connectionManager passiveListUpdate:vector ETV
vector 322 FloodSubNetwork.nodes[156].connectionManager passiveListUpdate:vector ETV
vector 323 FloodSubNetwork.nodes[266].connectionManager passiveListUpdate:vector ETV
vector 324 FloodSubNetwork.nodes[124].connectionManager passiveListUpdate:vector ETV
vector 325 FloodSubNetwork.nodes[432].connectionManager passiveListUpdate:vector ETV
vector 326 FloodSubNetwork.nodes[341].connectionManager passiveListUpdate:vector ETV
vector 327 FloodSubNetwork.nodes[413].connectionManager passiveListUpdate:vector ETV
vector 328 FloodSubNetwork.nodes[130].connectionManager passiveListUpdate:vector ETV
vector 329 FloodSubNetwork.nodes[113].connectionManager passiveListUpdate:vector ETV
vector 330 FloodSubNetwork.nodes[218].connectionManager passiveListUpdate:vector ETV
vector 331 FloodSubNetwork.nodes[88].connectionManager passiveListUpdate:vector ETV
vector 332 FloodSubNetwork.nodes[329].connectionManager passiveListUpdate:vector ETV
vector 333 FloodSubNetwork.nodes[377].connectionManager passiveListUpdate:vector ETV
vector 334 FloodSubNetwork.nodes[139].connectionManager passiveListUpdate:vector ETV
vector 335 FloodSubNetwork.nodes[343].connectionManager passiveListUpdate:vector ETV
vector 336 FloodSubNetwork.nodes[378].connectionManager passiveListUpdate:vector ETV
vector 337 FloodSubNetwork.nodes[282].connectionManager passiveListUpdate:vector ETV
vector 338 FloodSubNetwork.nodes[435].connectionManager passiveListUpdate:vector ETV
vector 339 FloodSubNetwork.nodes[272].connectionManager passiveListUpdate:vector ETV
vector 340 FloodSubNetwork.nodes[73].connectionManager passiveListUpdate:vector ETV
vector 341 FloodSubNetwork.nodes[62].connectionManager passiveListUpdate:vector ETV
vector 342 FloodSubNetwork.nodes[56].connectionManager passiveListUpdate:vector ETV
vector 343 FloodSubNetwork.nodes[412].connectionManager passiveListUpdate:vector ETV
vector 344 FloodSubNetwork.nodes[493].connectionManager passiveListUpdate:vector ETV
vector 345 FloodSubNetwork.nodes[338].connectionManager passiveListUpdate:vector ETV
vector 346 FloodSubNetwork.nodes[47].connectionManager passiveListUpdate:vector ETV
vector 347 FloodSubNetwork.nodes[476].connectionManager passiveListUpdate:vector ETV
vector 348 FloodSubNetwork.nodes[367].connectionManager passiveListUpdate:vector ETV
vector 349 FloodSubNetwork.nodes[11].connectionManager passiveListUpdate:vector ETV
vector 350 FloodSubNetwork.nodes[23].connectionManager passiveListUpdate:vector ETV
vector 351 FloodSubNetwork.nodes[480].connectionManager passiveListUpdate:vector ETV
vector 352 FloodSubNetwork.nodes[148].connectionManager passiveListUpdate:vector ETV
vector 353 FloodSubNetwork.nodes[187].connectionManager passiveListUpdate:vector ETV
vector 354 FloodSubNetwork.nodes[321].connectionManager passiveListUpdate:vector ETV
vector 355 FloodSubNetwork.nodes[497].connectionManager passiveListUpdate:vector ETV
vector 356 FloodSubNetwork.nodes[118].connectionManager passiveListUpdate:vector ETV
vector 357 FloodSubNetwork.nodes[108].connectionManager passiveListUpdate:vector ETV
vector 358 FloodSubNetwork.nodes[370].connectionManager passiveListUpdate:vector ETV
vector 359 FloodSubNetwork.nodes[417].connectionManager passiveListUpdate:vector ETV
vector 360 FloodSubNetwork.nodes[37].connectionManager passiveListUpdate:vector ETV
vector 361 FloodSubNetwork.nodes[415].connectionManager passiveListUpdate:vector ETV
vector 362 FloodSubNetwork.nodes[192].connectionManager passiveListUpdate:vector ETV
vector 363 FloodSubNetwork.nodes[115].connectionManager passiveListUpdate:vector ETV
vector 364 FloodSubNetwork.nodes[360].connectionManager passiveListUpdate:vector ETV
vector 365 FloodSubNetwork.nodes[81].connectionManager passiveListUpdate:vector ETV
vector 366 FloodSubNetwork.nodes[293].connectionManager passiveListUpdate:vector ETV
vector 367 FloodSubNetwork.nodes[259].connectionManager passiveListUpdate:vector ETV
vector 368 FloodSubNetwork.nodes[209].connectionManager passiveListUpdate:vector ETV
vector 369 FloodSubNetwork.nodes[471].connectionManager passiveListUpdate:vector ETV
vector 370 FloodSubNetwork.nodes[76].connectionManager passiveListUpdate:vector ETV
vector 371 FloodSubNetwork.nodes[225].connectionManager passiveListUpdate:vector ETV
vector 372 FloodSubNetwork.nodes[167].connectionManager passiveListUpdate:vector ETV
vector 373 FloodSubNetwork.nodes[3].connectionManager passiveListUpdate:vector ETV
vector 374 FloodSubNetwork.nodes[327].connectionManager passiveListUpdate:vector ETV
vector 375 FloodSubNetwork.nodes[354].connectionManager passiveListUpdate:vector ETV
vector 376 FloodSubNetwork.nodes[324].connectionManager passiveListUpdate:vector ETV
vector 377 FloodSubNetwork.nodes[446].connectionManager passiveListUpdate:vector ETV
vector 378 FloodSubNetwork.nodes[440].connectionManager passiveListUpdate:vector ETV
vector 379 FloodSubNetwork.nodes[67].connectionManager passiveListUpdate:vector ETV
vector 380 FloodSubNetwork.nodes[356].connectionManager passiveListUpdate:vector ETV
vector 381 FloodSubNetwork.nodes[86].connectionManager passiveListUpdate:vector ETV
vector 382 FloodSubNetwork.nodes[451].connectionManager passiveListUpdate:vector ETV
vector 383 FloodSubNetwork.nodes[151].connectionManager passiveListUpdate:vector ETV
vector 384 FloodSubNetwork.nodes[8].connectionManager passiveListUpdate:vector ETV
vector 385 FloodSubNetwork.nodes[484].connectionManager passiveListUpdate:vector ETV
vector 386 FloodSubNetwork.nodes[368].connectionManager passiveListUpdate:vector ETV
vector 387 FloodSubNetwork.nodes[223].connectionManager passiveListUpdate:vector ETV
vector 388 FloodSubNetwork.nodes[199].connectionManager passiveListUpdate:vector ETV
vector 389 FloodSubNetwork.nodes[302].connectionManager passiveListUpdate:vector ETV
vector 390 FloodSubNetwork.nodes[490].connectionManager passiveListUpdate:vector ETV
vector 391 FloodSubNetwork.nodes[275].connectionManager passiveListUpdate:vector ETV
vector 392 FloodSubNetwork.nodes[61].connectionManager passiveListUpdate:vector ETV
vector 393 FloodSubNetwork.nodes[188].connectionManager passiveListUpdate:vector ETV
vector 394 FloodSubNetwork.nodes[168].connectionManager passiveListUpdate:vector ETV
vector 395 FloodSubNetwork.nodes[32].connectionManager passiveListUpdate:vector ETV
vector 396 FloodSubNetwork.nodes[305].connectionManager passiveListUpdate:vector ETV
vector 397 FloodSubNetwork.nodes[198].connectionManager passiveListUpdate:vector ETV
vector 398 FloodSubNetwork.nodes[39].connectionManager passiveListUpdate:vector ETV
vector 399 FloodSubNetwork.nodes[345].connectionManager passiveListUpdate:vector ETV
vector 400 FloodSubNetwork.nodes[232].connectionManager passiveListUpdate:vector ETV
vector 401 FloodSubNetwork.nodes[311].connectionManager passiveListUpdate:vector ETV
vector 402 FloodSubNetwork.nodes[244].connectionManager passiveListUpdate:vector ETV
vector 403 FloodSubNetwork.nodes[9].connectionManager passiveListUpdate:vector ETV
vector 404 FloodSubNetwork.nodes[131].connectionManager passiveListUpdate:vector ETV
vector 405 FloodSubNetwork.nodes[286].connectionManager passiveListUpdate:vector ETV
vector 406 FloodSubNetwork.nodes[78].connectionManager passiveListUpdate:vector ETV
vector 407 FloodSubNetwork.nodes[274].connectionManager passiveListUpdate:vector ETV
vector 408 FloodSubNetwork.nodes[285].connectionManager passiveListUpdate:vector ETV
vector 409 FloodSubNetwork.nodes[464].connectionManager passiveListUpdate:vector ETV
vector 410 FloodSubNetwork.nodes[0].connectionManager passiveListUpdate:vector ETV
vector 411 FloodSubNetwork.nodes[2].connectionManager passiveListUpdate:vector ETV
vector 412 FloodSubNetwork.nodes[398].connectionManager passiveListUpdate:vector ETV
vector 413 FloodSubNetwork.nodes[333].connectionManager passiveListUpdate:vector ETV
vector 414 FloodSubNetwork.nodes[136].connectionManager passiveListUpdate:vector ETV
vector 415 FloodSubNetwork.nodes[308].connectionManager passiveListUpdate:vector ETV
vector 416 FloodSubNetwork.nodes[430].connectionManager passiveListUpdate:vector ETV
vector 417 FloodSubNetwork.nodes[359].connectionManager passiveListUpdate:vector ETV
vector 418 FloodSubNetwork.nodes[491].connectionManager passiveListUpdate:vector ETV
vector 419 FloodSubNetwork.nodes[234].connectionManager passiveListUpdate:vector ETV
vector 420 FloodSubNetwork.nodes[70].connectionManager passiveListUpdate:vector ETV
vector 421 FloodSubNetwork.nodes[342].connectionManager passiveListUpdate:vector ETV
vector 422 FloodSubNetwork.nodes[362].connectionManager passiveListUpdate:vector ETV
vector 423 FloodSubNetwork.nodes[454].connectionManager passiveListUpdate:vector ETV
vector 424 FloodSubNetwork.nodes[310].connectionManager passiveListUpdate:vector ETV
vector 425 FloodSubNetwork.nodes[452].connectionManager passiveListUpdate:vector ETV
vector 426 FloodSubNetwork.nodes[346].connectionManager passiveListUpdate:vector ETV
vector 427 FloodSubNetwork.nodes[69].connectionManager passiveListUpdate:vector ETV
vector 428 FloodSubNetwork.nodes[36].connectionManager passiveListUpdate:vector ETV
vector 429 FloodSubNetwork.nodes[382].connectionManager passiveListUpdate:vector ETV
vector 430 FloodSubNetwork.nodes[226].connectionManager passiveListUpdate:vector ETV
vector 431 FloodSubNetwork.nodes[418].connectionManager passiveListUpdate:vector ETV
vector 432 FloodSubNetwork.nodes[340].connectionManager passiveListUpdate:vector ETV
vector 433 FloodSubNetwork.nodes[249].connectionManager passiveListUpdate:vector ETV
vector 434 FloodSubNetwork.nodes[334].connectionManager passiveListUpdate:vector ETV
vector 435 FloodSubNetwork.nodes[414].connectionManager passiveListUpdate:vector ETV
vector 436 FloodSubNetwork.nodes[348].connectionManager passiveListUpdate:vector ETV
vector 437 FloodSubNetwork.nodes[193].connectionManager passiveListUpdate:vector ETV
vector 438 FloodSubNetwork.nodes[496].connectionManager passiveListUpdate:vector ETV
vector 439 FloodSubNetwork.nodes[20].connectionManager passiveListUpdate:vector ETV
vector 440 FloodSubNetwork.nodes[93].connectionManager passiveListUpdate:vector ETV
vector 441 FloodSubNetwork.nodes[126].connectionManager passiveListUpdate:vector ETV
vector 442 FloodSubNetwork.nodes[397].connectionManager passiveListUpdate:vector ETV
vector 443 FloodSubNetwork.nodes[477].connectionManager passiveListUpdate:vector ETV
vector 444 FloodSubNetwork.nodes[262].connectionManager passiveListUpdate:vector ETV
vector 445 FloodSubNetwork.nodes[189].connectionManager passiveListUpdate:vector ETV
vector 446 FloodSubNetwork.nodes[29].connectionManager passiveListUpdate:vector ETV
vector 447 FloodSubNetwork.nodes[498].connectionManager passiveListUpdate:vector ETV
vector 448 FloodSubNetwork.nodes[203].connectionManager passiveListUpdate:vector ETV
vector 449 FloodSubNetwork.nodes[80].connectionManager passiveListUpdate:vector ETV
vector 450 FloodSubNetwork.nodes[429].connectionManager passiveListUpdate:vector ETV
vector 451 FloodSubNetwork.nodes[15].connectionManager passiveListUpdate:vector ETV
vector 452 FloodSubNetwork.nodes[159].connectionManager passiveListUpdate:vector ETV
vector 453 FloodSubNetwork.nodes[102].connectionManager passiveListUpdate:vector ETV
vector 454 FloodSubNetwork.nodes[51].connectionManager passiveListUpdate:vector ETV
vector 455 FloodSubNetwork.nodes[263].connectionManager passiveListUpdate:vector ETV
vector 456 FloodSubNetwork.nodes[162].connectionManager passiveListUpdate:vector ETV
vector 457 FloodSubNetwork.nodes[138].connectionManager passiveListUpdate:vector ETV
vector 458 FloodSubNetwork.nodes[195].connectionManager passiveListUpdate:vector ETV
vector 459 FloodSubNetwork.nodes[447].connectionManager passiveListUpdate:vector ETV
vector 460 FloodSubNetwork.nodes[85].connectionManager passiveListUpdate:vector ETV
vector 461 FloodSubNetwork.nodes[40].connectionManager passiveListUpdate:vector ETV
vector 462 FloodSubNetwork.nodes[1].connectionManager passiveListUpdate:vector ETV
vector 463 FloodSubNetwork.nodes[175].connectionManager passiveListUpdate:vector ETV
vector 464 FloodSubNetwork.nodes[373].connectionManager passiveListUpdate:vector ETV
vector 465 FloodSubNetwork.nodes[376].connectionManager passiveListUpdate:vector ETV
vector 466 FloodSubNetwork.nodes[239].connectionManager passiveListUpdate:vector ETV
vector 467 FloodSubNetwork.nodes[386].connectionManager passiveListUpdate:vector ETV
vector 468 FloodSubNetwork.nodes[104].connectionManager passiveListUpdate:vector ETV
vector 469 FloodSubNetwork.nodes[96].connectionManager passiveListUpdate:vector ETV
vector 470 FloodSubNetwork.nodes[300].connectionManager passiveListUpdate:vector ETV
vector 471 FloodSubNetwork.nodes[281].connectionManager passiveListUpdate:vector ETV
vector 472 FloodSubNetwork.nodes[461].connectionManager passiveListUpdate:vector ETV
vector 473 FloodSubNetwork.nodes[400].connectionManager passiveListUpdate:vector ETV
vector 474 FloodSubNetwork.nodes[241].connectionManager passiveListUpdate:vector ETV
vector 475 FloodSubNetwork.nodes[163].connectionManager passiveListUpdate:vector ETV
vector 476 FloodSubNetwork.nodes[25].connectionManager passiveListUpdate:vector ETV
vector 477 FloodSubNetwork.nodes[444].connectionManager passiveListUpdate:vector ETV
vector 478 FloodSubNetwork.nodes[208].connectionManager passiveListUpdate:vector ETV
vector 479 FloodSubNetwork.nodes[350].connectionManager passiveListUpdate:vector ETV
vector 480 FloodSubNetwork.nodes[24].connectionManager passiveListUpdate:vector ETV
vector 481 FloodSubNetwork.nodes[427].connectionManager passiveListUpdate:vector ETV
vector 482 FloodSubNetwork.nodes[481].connectionManager passiveListUpdate:vector ETV
vector 483 FloodSubNetwork.nodes[107].connectionManager passiveListUpdate:vector ETV
vector 484 FloodSubNetwork.nodes[251].connectionManager passiveListUpdate:vector ETV
vector 485 FloodSubNetwork.nodes[21].connectionManager passiveListUpdate:vector ETV
vector 486 FloodSubNetwork.nodes[474].connectionManager passiveListUpdate:vector ETV
vector 487 FloodSubNetwork.nodes[434].connectionManager passiveListUpdate:vector ETV
vector 488 FloodSubNetwork.nodes[445].connectionManager passiveListUpdate:vector ETV
vector 489 FloodSubNetwork.nodes[280].connectionManager passiveListUpdate:vector ETV
vector 490 FloodSubNetwork.nodes[495].connectionManager passiveListUpdate:vector ETV
vector 491 FloodSubNetwork.nodes[453].connectionManager passiveListUpdate:vector ETV
vector 492 FloodSubNetwork.nodes[229].connectionManager passiveListUpdate:vector ETV
vector 493 FloodSubNetwork.nodes[200].connectionManager passiveListUpdate:vector ETV
vector 494 FloodSubNetwork.nodes[436].connectionManager passiveListUpdate:vector ETV
vector 495 FloodSubNetwork.nodes[456].connectionManager passiveListUpdate:vector ETV
vector 496 FloodSubNetwork.nodes[217].connectionManager passiveListUpdate:vector ETV
vector 497 FloodSubNetwork.nodes[364].connectionManager passiveListUpdate:vector ETV
vector 498 FloodSubNetwork.nodes[466].connectionManager passiveListUpdate:vector ETV
vector 499 FloodSubNetwork.nodes[366].connectionManager passiveListUpdate:vector ETV
vector 500 FloodSubNetwork.nodes[38].connectionManager activeListUpdate:vector ETV
vector 501 FloodSubNetwork.nodes[246].connectionManager activeListUpdate:vector ETV
vector 502 FloodSubNetwork.nodes[50].connectionManager activeListUpdate:vector ETV
vector 503 FloodSubNetwork.nodes[166].connectionManager activeListUpdate:vector ETV
vector 504 FloodSubNetwork.nodes[121].connectionManager activeListUpdate:vector ETV
vector 505 FloodSubNetwork.nodes[149].connectionManager activeListUpdate:vector ETV
vector 506 FloodSubNetwork.nodes[344].connectionManager activeListUpdate:vector ETV
vector 507 FloodSubNetwork.nodes[478].connectionManager activeListUpdate:vector ETV
vector 508 FloodSubNetwork.nodes[44].connectionManager activeListUpdate:vector ETV
vector 509 FloodSubNetwork.nodes[213].connectionManager activeListUpdate:vector ETV
vector 510 FloodSubNetwork.nodes[142].connectionManager activeListUpdate:vector ETV
vector 511 FloodSubNetwork.nodes[448].connectionManager activeListUpdate:vector ETV
vector 512 FloodSubNetwork.nodes[28].connectionManager activeListUpdate:vector ETV
vector 513 FloodSubNetwork.nodes[393].connectionManager activeListUpdate:vector ETV
vector 514 FloodSubNetwork.nodes[332].connectionManager activeListUpdate:vector ETV
vector 515 FloodSubNetwork.nodes[153].connectionManager activeListUpdate:vector ETV
vector 516 FloodSubNetwork.nodes[220].connectionManager activeListUpdate:vector ETV
vector 517 FloodSubNetwork.nodes[443].connectionManager activeListUpdate:vector ETV
vector 518 FloodSubNetwork.nodes[106].connectionManager activeListUpdate:vector ETV
vector 519 FloodSubNetwork.nodes[283].connectionManager activeListUpdate:vector ETV
vector 520 FloodSubNetwork.nodes[114].connectionManager activeListUpdate:vector ETV
vector 521 FloodSubNetwork.nodes[119].connectionManager activeListUpdate:vector ETV
vector 522 FloodSubNetwork.nodes[2].connectionManager activeListUpdate:vector ETV
vector 523 FloodSubNetwork.nodes[181].connectionManager activeListUpdate:vector ETV
vector 524 FloodSubNetwork.nodes[27].connectionManager activeListUpdate:vector ETV
vector 525 FloodSubNetwork.nodes[297].connectionManager activeListUpdate:vector ETV
vector 526 FloodSubNetwork.nodes[335].connectionManager activeListUpdate:vector ETV
vector 527 FloodSubNetwork.nodes[475].connectionManager activeListUpdate:vector ETV
vector 528 FloodSubNetwork.nodes[374].connectionManager activeListUpdate:vector ETV
vector 529 FloodSubNetwork.nodes[123].connectionManager activeListUpdate:vector ETV
vector 530 FloodSubNetwork.nodes[326].connectionManager activeListUpdate:vector ETV
vector 531 FloodSubNetwork.nodes[184].connectionManager activeListUpdate:vector ETV
vector 532 FloodSubNetwork.nodes[499].connectionManager activeListUpdate:vector ETV
vector 533 FloodSubNetwork.nodes[128].connectionManager activeListUpdate:vector ETV
vector 534 FloodSubNetwork.nodes[150].connectionManager activeListUpdate:vector ETV
vector 535 FloodSubNetwork.nodes[129].connectionManager activeListUpdate:vector ETV
vector 536 FloodSubNetwork.nodes[243].connectionManager activeListUpdate:vector ETV
vector 537 FloodSubNetwork.nodes[4].connectionManager activeListUpdate:vector ETV
vector 538 FloodSubNetwork.nodes[177].connectionManager activeListUpdate:vector ETV
vector 539 FloodSubNetwork.nodes[154].connectionManager activeListUpdate:vector ETV
vector 540 FloodSubNetwork.nodes[22].connectionManager activeListUpdate:vector ETV
vector 541 FloodSubNetwork.nodes[48].connectionManager activeListUpdate:vector ETV
vector 542 FloodSubNetwork.nodes[233].connectionManager activeListUpdate:vector ETV
vector 543 FloodSubNetwork.nodes[120].connectionManager activeListUpdate:vector ETV
vector 544 FloodSubNetwork.nodes[183].connectionManager activeListUpdate:vector ETV
vector 545 FloodSubNetwork.nodes[494].connectionManager activeListUpdate:vector ETV
vector 546 FloodSubNetwork.nodes[269].connectionManager activeListUpdate:vector ETV
vector 547 FloodSubNetwork.nodes[277].connectionManager activeListUpdate:vector ETV
vector 548 FloodSubNetwork.nodes[196].connectionManager activeListUpdate:vector ETV
vector 549 FloodSubNetwork.nodes[271].connectionManager activeListUpdate:vector ETV
vector 550 FloodSubNetwork.nodes[309].connectionManager activeListUpdate:vector ETV
vector 551 FloodSubNetwork.nodes[35].connectionManager activeListUpdate:vector ETV
vector 552 FloodSubNetwork.nodes[299].connectionManager activeListUpdate:vector ETV
vector 553 FloodSubNetwork.nodes[247].connectionManager activeListUpdate:vector ETV
vector 554 FloodSubNetwork.nodes[276].connectionManager activeListUpdate:vector ETV
vector 555 FloodSubNetwork.nodes[384].connectionManager activeListUpdate:vector ETV
vector 556 FloodSubNetwork.nodes[425].connectionManager activeListUpdate:vector ETV
vector 557 FloodSubNetwork.nodes[312].connectionManager activeListUpdate:vector ETV
vector 558 FloodSubNetwork.nodes[472].connectionManager activeListUpdate:vector ETV
vector 559 FloodSubNetwork.nodes[383].connectionManager activeListUpdate:vector ETV
vector 560 FloodSubNetwork.nodes[216].connectionManager activeListUpdate:vector ETV
vector 561 FloodSubNetwork.nodes[353].connectionManager activeListUpdate:vector ETV
vector 562 FloodSubNetwork.nodes[219].connectionManager activeListUpdate:vector ETV
vector 563 FloodSubNetwork.nodes[5].connectionManager activeListUpdate:vector ETV
vector 564 FloodSubNetwork.nodes[141].connectionManager activeListUpdate:vector ETV
vector 565 FloodSubNetwork.nodes[361].connectionManager activeListUpdate:vector ETV
vector 566 FloodSubNetwork.nodes[215].connectionManager activeListUpdate:vector ETV
vector 567 FloodSubNetwork.nodes[212].connectionManager activeListUpdate:vector ETV
vector 568 FloodSubNetwork.nodes[101].connectionManager activeListUpdate:vector ETV
vector 569 FloodSubNetwork.nodes[122].connectionManager activeListUpdate:vector ETV
vector 570 FloodSubNetwork.nodes[408].connectionManager activeListUpdate:vector ETV
vector 571 FloodSubNetwork.nodes[160].connectionManager activeListUpdate:vector ETV
vector 572 FloodSubNetwork.nodes[339].connectionManager activeListUpdate:vector ETV
vector 573 FloodSubNetwork.nodes[240].connectionManager activeListUpdate:vector ETV
vector 574 FloodSubNetwork.nodes[284].connectionManager activeListUpdate:vector ETV
vector 575 FloodSubNetwork.nodes[313].connectionManager activeListUpdate:vector ETV
vector 576 FloodSubNetwork.nodes[322].connectionManager activeListUpdate:vector ETV
vector 577 FloodSubNetwork.nodes[371].connectionManager activeListUpdate:vector ETV
vector 578 FloodSubNetwork.nodes[433].connectionManager activeListUpdate:vector ETV
vector 579 FloodSubNetwork.nodes[14].connectionManager activeListUpdate:vector ETV
vector 580 FloodSubNetwork.nodes[278].connectionManager activeListUpdate:vector ETV
vector 581 FloodSubNetwork.nodes[53].connectionManager activeListUpdate:vector ETV
vector 582 FloodSubNetwork.nodes[320].connectionManager activeListUpdate:vector ETV
vector 583 FloodSubNetwork.nodes[352].connectionManager activeListUpdate:vector ETV
vector 584 FloodSubNetwork.nodes[6].connectionManager activeListUpdate:vector ETV
vector 585 FloodSubNetwork.nodes[65].connectionManager activeListUpdate:vector ETV
vector 586 FloodSubNetwork.nodes[179].connectionManager activeListUpdate:vector ETV
vector 587 FloodSubNetwork.nodes[71].connectionManager activeListUpdate:vector ETV
vector 588 FloodSubNetwork.nodes[265].connectionManager activeListUpdate:vector ETV
vector 589 FloodSubNetwork.nodes[190].connectionManager activeListUpdate:vector ETV
vector 590 FloodSubNetwork.nodes[492].connectionManager activeListUpdate:vector ETV
vector 591 FloodSubNetwork.nodes[465].connectionManager activeListUpdate:vector ETV
vector 592 FloodSubNetwork.nodes[369].connectionManager activeListUpdate:vector ETV
vector 593 FloodSubNetwork.nodes[402].connectionManager activeListUpdate:vector ETV
vector 594 FloodSubNetwork.nodes[273].connectionManager activeListUpdate:vector ETV
vector 595 FloodSubNetwork.nodes[441].connectionManager activeListUpdate:vector ETV
vector 596 FloodSubNetwork.nodes[55].connectionManager activeListUpdate:vector ETV
vector 597 FloodSubNetwork.nodes[349].connectionManager activeListUpdate:vector ETV
vector 598 FloodSubNetwork.nodes[268].connectionManager activeListUpdate:vector ETV
vector 599 FloodSubNetwork.nodes[486].connectionManager activeListUpdate:vector ETV
vector 600 FloodSubNetwork.nodes[224].connectionManager activeListUpdate:vector ETV
vector 601 FloodSubNetwork.nodes[84].connectionManager activeListUpdate:vector ETV
vector 602 FloodSubNetwork.nodes[206].connectionManager activeListUpdate:vector ETV
vector 603 FloodSubNetwork.nodes[252].connectionManager activeListUpdate:vector ETV
vector 604 FloodSubNetwork.nodes[60].connectionManager activeListUpdate:vector ETV
vector 605 FloodSubNetwork.nodes[292].connectionManager activeListUpdate:vector ETV
vector 606 FloodSubNetwork.nodes[419].connectionManager activeListUpdate:vector ETV
vector 607 FloodSubNetwork.nodes[110].connectionManager activeListUpdate:vector ETV
vector 608 FloodSubNetwork.nodes[442].connectionManager activeListUpdate:vector ETV
vector 609 FloodSubNetwork.nodes[12].connectionManager activeListUpdate:vector ETV
vector 610 FloodSubNetwork.nodes[423].connectionManager activeListUpdate:vector ETV
vector 611 FloodSubNetwork.nodes[205].connectionManager activeListUpdate:vector ETV
vector 612 FloodSubNetwork.nodes[49].connectionManager activeListUpdate:vector ETV
vector 613 FloodSubNetwork.nodes[288].connectionManager activeListUpdate:vector ETV
vector 614 FloodSubNetwork.nodes[387].connectionManager activeListUpdate:vector ETV
vector 615 FloodSubNetwork.nodes[245].connectionManager activeListUpdate:vector ETV
vector 616 FloodSubNetwork.nodes[459].connectionManager activeListUpdate:vector ETV
vector 617 FloodSubNetwork.nodes[165].connectionManager activeListUpdate:vector ETV
vector 618 FloodSubNetwork.nodes[314].connectionManager activeListUpdate:vector ETV
vector 619 FloodSubNetwork.nodes[411].connectionManager activeListUpdate:vector ETV
vector 620 FloodSubNetwork.nodes[421].connectionManager activeListUpdate:vector ETV
vector 621 FloodSubNetwork.nodes[394].connectionManager activeListUpdate:vector ETV
vector 622 FloodSubNetwork.nodes[238].connectionManager activeListUpdate:vector ETV
vector 623 FloodSubNetwork.nodes[304].connectionManager activeListUpdate:vector ETV
vector 624 FloodSubNetwork.nodes[204].connectionManager activeListUpdate:vector ETV
vector 625 FloodSubNetwork.nodes[437].connectionManager activeListUpdate:vector ETV
vector 626 FloodSubNetwork.nodes[30].connectionManager activeListUpdate:vector ETV
vector 627 FloodSubNetwork.nodes[325].connectionManager activeListUpdate:vector ETV
vector 628 FloodSubNetwork.nodes[89].connectionManager activeListUpdate:vector ETV
vector 629 FloodSubNetwork.nodes[161].connectionManager activeListUpdate:vector ETV
vector 630 FloodSubNetwork.nodes[422].connectionManager activeListUpdate:vector ETV
vector 631 FloodSubNetwork.nodes[328].connectionManager activeListUpdate:vector ETV
vector 632 FloodSubNetwork.nodes[317].connectionManager activeListUpdate:vector ETV
vector 633 FloodSubNetwork.nodes[336].connectionManager activeListUpdate:vector ETV
vector 634 FloodSubNetwork.nodes[172].connectionManager activeListUpdate:vector ETV
vector 635 FloodSubNetwork.nodes[42].connectionManager activeListUpdate:vector ETV
vector 636 FloodSubNetwork.nodes[406].connectionManager activeListUpdate:vector ETV
vector 637 FloodSubNetwork.nodes[33].connectionManager activeListUpdate:vector ETV
vector 638 FloodSubNetwork.nodes[10].connectionManager activeListUpdate:vector ETV
vector 639 FloodSubNetwork.nodes[372].connectionManager activeListUpdate:vector ETV
vector 640 FloodSubNetwork.nodes[473].connectionManager activeListUpdate:vector ETV
vector 641 FloodSubNetwork.nodes[201].connectionManager activeListUpdate:vector ETV
vector 642 FloodSubNetwork.nodes[399].connectionManager activeListUpdate:vector ETV
vector 643 FloodSubNetwork.nodes[174].connectionManager activeListUpdate:vector ETV
vector 644 FloodSubNetwork.nodes[125].connectionManager activeListUpdate:vector ETV
vector 645 FloodSubNetwork.nodes[449].connectionManager activeListUpdate:vector ETV
vector 646 FloodSubNetwork.nodes[98].connectionManager activeListUpdate:vector ETV
vector 647 FloodSubNetwork.nodes[428].connectionManager activeListUpdate:vector ETV
vector 648 FloodSubNetwork.nodes[392].connectionManager activeListUpdate:vector ETV
vector 649 FloodSubNetwork.nodes[94].connectionManager activeListUpdate:vector ETV
vector 650 FloodSubNetwork.nodes[409].connectionManager activeListUpdate:vector ETV
vector 651 FloodSubNetwork.nodes[191].connectionManager activeListUpdate:vector ETV
vector 652 FloodSubNetwork.nodes[92].connectionManager activeListUpdate:vector ETV
vector 653 FloodSubNetwork.nodes[267].connectionManager activeListUpdate:vector ETV
vector 654 FloodSubNetwork.nodes[137].connectionManager activeListUpdate:vector ETV
vector 655 FloodSubNetwork.nodes[64].connectionManager activeListUpdate:vector ETV
vector 656 FloodSubNetwork.nodes[75].connectionManager activeListUpdate:vector ETV
vector 657 FloodSubNetwork.nodes[306].connectionManager activeListUpdate:vector ETV
vector 658 FloodSubNetwork.nodes[103].connectionManager activeListUpdate:vector ETV
vector 659 FloodSubNetwork.nodes[214].connectionManager activeListUpdate:vector ETV
vector 660 FloodSubNetwork.nodes[178].connectionManager activeListUpdate:vector ETV
vector 661 FloodSubNetwork.nodes[133].connectionManager activeListUpdate:vector ETV
vector 662 FloodSubNetwork.nodes[221].connectionManager activeListUpdate:vector ETV
vector 663 FloodSubNetwork.nodes[404].connectionManager activeListUpdate:vector ETV
vector 664 FloodSubNetwork.nodes[295].connectionManager activeListUpdate:vector ETV
vector 665 FloodSubNetwork.nodes[146].connectionManager activeListUpdate:vector ETV
vector 666 FloodSubNetwork.nodes[439].connectionManager activeListUpdate:vector ETV
vector 667 FloodSubNetwork.nodes[170].connectionManager activeListUpdate:vector ETV
vector 668 FloodSubNetwork.nodes[250].connectionManager activeListUpdate:vector ETV
vector 669 FloodSubNetwork.nodes[16].connectionManager activeListUpdate:vector ETV
vector 670 FloodSubNetwork.nodes[420].connectionManager activeListUpdate:vector ETV
vector 671 FloodSubNetwork.nodes[111].connectionManager activeListUpdate:vector ETV
vector 672 FloodSubNetwork.nodes[396].connectionManager activeListUpdate:vector ETV
vector 673 FloodSubNetwork.nodes[458].connectionManager activeListUpdate:vector ETV
vector 674 FloodSubNetwork.nodes[173].connectionManager activeListUpdate:vector ETV
vector 675 FloodSubNetwork.nodes[145].connectionManager activeListUpdate:vector ETV
vector 676 FloodSubNetwork.nodes[90].connectionManager activeListUpdate:vector ETV
vector 677 FloodSubNetwork.nodes[487].connectionManager activeListUpdate:vector ETV
vector 678 FloodSubNetwork.nodes[100].connectionManager activeListUpdate:vector ETV
vector 679 FloodSubNetwork.nodes[385].connectionManager activeListUpdate:vector ETV
vector 680 FloodSubNetwork.nodes[463].connectionManager activeListUpdate:vector ETV
vector 681 FloodSubNetwork.nodes[26].connectionManager activeListUpdate:vector ETV
vector 682 FloodSubNetwork.nodes[164].connectionManager activeListUpdate:vector ETV
vector 683 FloodSubNetwork.nodes[77].connectionManager activeListUpdate:vector ETV
vector 684 FloodSubNetwork.nodes[318].connectionManager activeListUpdate:vector ETV
vector 685 FloodSubNetwork.nodes[410].connectionManager activeListUpdate:vector ETV
vector 686 FloodSubNetwork.nodes[388].connectionManager activeListUpdate:vector ETV
vector 687 FloodSubNetwork.nodes[390].connectionManager activeListUpdate:vector ETV
vector 688 FloodSubNetwork.nodes[135].connectionManager activeListUpdate:vector ETV
vector 689 FloodSubNetwork.nodes[180].connectionManager activeListUpdate:vector ETV
vector 690 FloodSubNetwork.nodes[144].connectionManager activeListUpdate:vector ETV
vector 691 FloodSubNetwork.nodes[407].connectionManager activeListUpdate:vector ETV
vector 692 FloodSubNetwork.nodes[197].connectionManager activeListUpdate:vector ETV
vector 693 FloodSubNetwork.nodes[236].connectionManager activeListUpdate:vector ETV
vector 694 FloodSubNetwork.nodes[19].connectionManager activeListUpdate:vector ETV
vector 695 FloodSubNetwork.nodes[258].connectionManager activeListUpdate:vector ETV
vector 696 FloodSubNetwork.nodes[426].connectionManager activeListUpdate:vector ETV
vector 697 FloodSubNetwork.nodes[323].connectionManager activeListUpdate:vector ETV
vector 698 FloodSubNetwork.nodes[462].connectionManager activeListUpdate:vector ETV
vector 699 FloodSubNetwork.nodes[99].connectionManager activeListUpdate:vector ETV
vector 700 FloodSubNetwork.nodes[147].connectionManager activeListUpdate:vector ETV
vector 701 FloodSubNetwork.nodes[95].connectionManager activeListUpdate:vector ETV
vector 702 FloodSubNetwork.nodes[316].connectionManager activeListUpdate:vector ETV
vector 703 FloodSubNetwork.nodes[460].connectionManager activeListUpdate:vector ETV
vector 704 FloodSubNetwork.nodes[488].connectionManager activeListUpdate:vector ETV
vector 705 FloodSubNetwork.nodes[222].connectionManager activeListUpdate:vector ETV
vector 706 FloodSubNetwork.nodes[303].connectionManager activeListUpdate:vector ETV
vector 707 FloodSubNetwork.nodes[254].connectionManager activeListUpdate:vector ETV
vector 708 FloodSubNetwork.nodes[450].connectionManager activeListUpdate:vector ETV
vector 709 FloodSubNetwork.nodes[289].connectionManager activeListUpdate:vector ETV
vector 710 FloodSubNetwork.nodes[379].connectionManager activeListUpdate:vector ETV
vector 711 FloodSubNetwork.nodes[72].connectionManager activeListUpdate:vector ETV
vector 712 FloodSubNetwork.nodes[279].connectionManager activeListUpdate:vector ETV
vector 713 FloodSubNetwork.nodes[479].connectionManager activeListUpdate:vector ETV
vector 714 FloodSubNetwork.nodes[315].connectionManager activeListUpdate:vector ETV
vector 715 FloodSubNetwork.nodes[152].connectionManager activeListUpdate:vector ETV
vector 716 FloodSubNetwork.nodes[291].connectionManager activeListUpdate:vector ETV
vector 717 FloodSubNetwork.nodes[143].connectionManager activeListUpdate:vector ETV
vector 718 FloodSubNetwork.nodes[0].connectionManager activeListUpdate:vector ETV
vector 719 FloodSubNetwork.nodes[66].connectionManager activeListUpdate:vector ETV
vector 720 FloodSubNetwork.nodes[307].connectionManager activeListUpdate:vector ETV
vector 721 FloodSubNetwork.nodes[358].connectionManager activeListUpdate:vector ETV
vector 722 FloodSubNetwork.nodes[18].connectionManager activeListUpdate:vector ETV
vector 723 FloodSubNetwork.nodes[57].connectionManager activeListUpdate:vector ETV
vector 724 FloodSubNetwork.nodes[381].connectionManager activeListUpdate:vector ETV
vector 725 FloodSubNetwork.nodes[97].connectionManager activeListUpdate:vector ETV
vector 726 FloodSubNetwork.nodes[261].connectionManager activeListUpdate:vector ETV
vector 727 FloodSubNetwork.nodes[365].connectionManager activeListUpdate:vector ETV
vector 728 FloodSubNetwork.nodes[186].connectionManager activeListUpdate:vector ETV
vector 729 FloodSubNetwork.nodes[58].connectionManager activeListUpdate:vector ETV
vector 730 FloodSubNetwork.nodes[403].connectionManager activeListUpdate:vector ETV
vector 731 FloodSubNetwork.nodes[237].connectionManager activeListUpdate:vector ETV
vector 732 FloodSubNetwork.nodes[330].connectionManager activeListUpdate:vector ETV
vector 733 FloodSubNetwork.nodes[231].connectionManager activeListUpdate:vector ETV
vector 734 FloodSubNetwork.nodes[260].connectionManager activeListUpdate:vector ETV
vector 735 FloodSubNetwork.nodes[438].connectionManager activeListUpdate:vector ETV
vector 736 FloodSubNetwork.nodes[270].connectionManager activeListUpdate:vector ETV
vector 737 FloodSubNetwork.nodes[202].connectionManager activeListUpdate:vector ETV
vector 738 FloodSubNetwork.nodes[230].connectionManager activeListUpdate:vector ETV
vector 739 FloodSubNetwork.nodes[228].connectionManager activeListUpdate:vector ETV
vector 740 FloodSubNetwork.nodes[182].connectionManager activeListUpdate:vector ETV
vector 741 FloodSubNetwork.nodes[79].connectionManager activeListUpdate:vector ETV
vector 742 FloodSubNetwork.nodes[294].connectionManager activeListUpdate:vector ETV
vector 743 FloodSubNetwork.nodes[45].connectionManager activeListUpdate:vector ETV
vector 744 FloodSubNetwork.nodes[264].connectionManager activeListUpdate:vector ETV
vector 745 FloodSubNetwork.nodes[483].connectionManager activeListUpdate:vector ETV
vector 746 FloodSubNetwork.nodes[132].connectionManager activeListUpdate:vector ETV
vector 747 FloodSubNetwork.nodes[287].connectionManager activeListUpdate:vector ETV
vector 748 FloodSubNetwork.nodes[17].connectionManager activeListUpdate:vector ETV
vector 749 FloodSubNetwork.nodes[210].connectionManager activeListUpdate:vector ETV
vector 750 FloodSubNetwork.nodes[74].connectionManager activeListUpdate:vector ETV
vector 751 FloodSubNetwork.nodes[155].connectionManager activeListUpdate:vector ETV
vector 752 FloodSubNetwork.nodes[331].connectionManager activeListUpdate:vector ETV
vector 753 FloodSubNetwork.nodes[117].connectionManager activeListUpdate:vector ETV
vector 754 FloodSubNetwork.nodes[301].connectionManager activeListUpdate:vector ETV
vector 755 FloodSubNetwork.nodes[290].connectionManager activeListUpdate:vector ETV
vector 756 FloodSubNetwork.nodes[7].connectionManager activeListUpdate:vector ETV
vector 757 FloodSubNetwork.nodes[235].connectionManager activeListUpdate:vector ETV
vector 758 FloodSubNetwork.nodes[63].connectionManager activeListUpdate:vector ETV
vector 759 FloodSubNetwork.nodes[457].connectionManager activeListUpdate:vector ETV
vector 760 FloodSubNetwork.nodes[43].connectionManager activeListUpdate:vector ETV
vector 761 FloodSubNetwork.nodes[389].connectionManager activeListUpdate:vector ETV
vector 762 FloodSubNetwork.nodes[140].connectionManager activeListUpdate:vector ETV
vector 763 FloodSubNetwork.nodes[46].connectionManager activeListUpdate:vector ETV
vector 764 FloodSubNetwork.nodes[255].connectionManager activeListUpdate:vector ETV
vector 765 FloodSubNetwork.nodes[363].connectionManager activeListUpdate:vector ETV
vector 766 FloodSubNetwork.nodes[157].connectionManager activeListUpdate:vector ETV
vector 767 FloodSubNetwork.nodes[319].connectionManager activeListUpdate:vector ETV
vector 768 FloodSubNetwork.nodes[185].connectionManager activeListUpdate:vector ETV
vector 769 FloodSubNetwork.nodes[59].connectionManager activeListUpdate:vector ETV
vector 770 FloodSubNetwork.nodes[116].connectionManager activeListUpdate:vector ETV
vector 771 FloodSubNetwork.nodes[380].connectionManager activeListUpdate:vector ETV
vector 772 FloodSubNetwork.nodes[207].connectionManager activeListUpdate:vector ETV
vector 773 FloodSubNetwork.nodes[91].connectionManager activeListUpdate:vector ETV
vector 774 FloodSubNetwork.nodes[257].connectionManager activeListUpdate:vector ETV
vector 775 FloodSubNetwork.nodes[424].connectionManager activeListUpdate:vector ETV
vector 776 FloodSubNetwork.nodes[467].connectionManager activeListUpdate:vector ETV
vector 777 FloodSubNetwork.nodes[337].connectionManager activeListUpdate:vector ETV
vector 778 FloodSubNetwork.nodes[68].connectionManager activeListUpdate:vector ETV
vector 779 FloodSubNetwork.nodes[82].connectionManager activeListUpdate:vector ETV
vector 780 FloodSubNetwork.nodes[211].connectionManager activeListUpdate:vector ETV
vector 781 FloodSubNetwork.nodes[158].connectionManager activeListUpdate:vector ETV
vector 782 FloodSubNetwork.nodes[401].connectionManager activeListUpdate:vector ETV
vector 783 FloodSubNetwork.nodes[169].connectionManager activeListUpdate:vector ETV
vector 784 FloodSubNetwork.nodes[482].connectionManager activeListUpdate:vector ETV
vector 785 FloodSubNetwork.nodes[431].connectionManager activeListUpdate:vector ETV
vector 786 FloodSubNetwork.nodes[34].connectionManager activeListUpdate:vector ETV
vector 787 FloodSubNetwork.nodes[256].connectionManager activeListUpdate:vector ETV
vector 788 FloodSubNetwork.nodes[347].connectionManager activeListUpdate:vector ETV
vector 789 FloodSubNetwork.nodes[52].connectionManager activeListUpdate:vector ETV
vector 790 FloodSubNetwork.nodes[176].connectionManager activeListUpdate:vector ETV
vector 791 FloodSubNetwork.nodes[469].connectionManager activeListUpdate:vector ETV
vector 792 FloodSubNetwork.nodes[156].connectionManager activeListUpdate:vector ETV
vector 793 FloodSubNetwork.nodes[455].connectionManager activeListUpdate:vector ETV
vector 794 FloodSubNetwork.nodes[1].connectionManager activeListUpdate:vector ETV
vector 795 FloodSubNetwork.nodes[395].connectionManager activeListUpdate:vector ETV
vector 796 FloodSubNetwork.nodes[87].connectionManager activeListUpdate:vector ETV
vector 797 FloodSubNetwork.nodes[357].connectionManager activeListUpdate:vector ETV
vector 798 FloodSubNetwork.nodes[31].connectionManager activeListUpdate:vector ETV
vector 799 FloodSubNetwork.nodes[41].connectionManager activeListUpdate:vector ETV
vector 800 FloodSubNetwork.nodes[83].connectionManager activeListUpdate:vector ETV
vector 801 FloodSubNetwork.nodes[54].connectionManager activeListUpdate:vector ETV
vector 802 FloodSubNetwork.nodes[468].connectionManager activeListUpdate:vector ETV
vector 803 FloodSubNetwork.nodes[351].connectionManager activeListUpdate:vector ETV
vector 804 FloodSubNetwork.nodes[416].connectionManager activeListUpdate:vector ETV
vector 805 FloodSubNetwork.nodes[296].connectionManager activeListUpdate:vector ETV
vector 806 FloodSubNetwork.nodes[405].connectionManager activeListUpdate:vector ETV
vector 807 FloodSubNetwork.nodes[375].connectionManager activeListUpdate:vector ETV
vector 808 FloodSubNetwork.nodes[298].connectionManager activeListUpdate:vector ETV
vector 809 FloodSubNetwork.nodes[248].connectionManager activeListUpdate:vector ETV
vector 810 FloodSubNetwork.nodes[432].connectionManager activeListUpdate:vector ETV
vector 811 FloodSubNetwork.nodes[227].connectionManager activeListUpdate:vector ETV
vector 812 FloodSubNetwork.nodes[489].connectionManager activeListUpdate:vector ETV
vector 813 FloodSubNetwork.nodes[105].connectionManager activeListUpdate:vector ETV
vector 814 FloodSubNetwork.nodes[355].connectionManager activeListUpdate:vector ETV
vector 815 FloodSubNetwork.nodes[134].connectionManager activeListUpdate:vector ETV
vector 816 FloodSubNetwork.nodes[470].connectionManager activeListUpdate:vector ETV
vector 817 FloodSubNetwork.nodes[187].connectionManager activeListUpdate:vector ETV
vector 818 FloodSubNetwork.nodes[338].connectionManager activeListUpdate:vector ETV
vector 819 FloodSubNetwork.nodes[47].connectionManager activeListUpdate:vector ETV
vector 820 FloodSubNetwork.nodes[272].connectionManager activeListUpdate:vector ETV
vector 821 FloodSubNetwork.nodes[367].connectionManager activeListUpdate:vector ETV
vector 822 FloodSubNetwork.nodes[130].connectionManager activeListUpdate:vector ETV
vector 823 FloodSubNetwork.nodes[148].connectionManager activeListUpdate:vector ETV
vector 824 FloodSubNetwork.nodes[242].connectionManager activeListUpdate:vector ETV
vector 825 FloodSubNetwork.nodes[171].connectionManager activeListUpdate:vector ETV
vector 826 FloodSubNetwork.nodes[118].connectionManager activeListUpdate:vector ETV
vector 827 FloodSubNetwork.nodes[266].connectionManager activeListUpdate:vector ETV
vector 828 FloodSubNetwork.nodes[391].connectionManager activeListUpdate:vector ETV
vector 829 FloodSubNetwork.nodes[485].connectionManager activeListUpdate:vector ETV
vector 830 FloodSubNetwork.nodes[127].connectionManager activeListUpdate:vector ETV
vector 831 FloodSubNetwork.nodes[13].connectionManager activeListUpdate:vector ETV
vector 832 FloodSubNetwork.nodes[253].connectionManager activeListUpdate:vector ETV
vector 833 FloodSubNetwork.nodes[493].connectionManager activeListUpdate:vector ETV
vector 834 FloodSubNetwork.nodes[194].connectionManager activeListUpdate:vector ETV
vector 835 FloodSubNetwork.nodes[435].connectionManager activeListUpdate:vector ETV
vector 836 FloodSubNetwork.nodes[341].connectionManager activeListUpdate:vector ETV
vector 837 FloodSubNetwork.nodes[124].connectionManager activeListUpdate:vector ETV
vector 838 FloodSubNetwork.nodes[378].connectionManager activeListUpdate:vector ETV
vector 839 FloodSubNetwork.nodes[113].connectionManager activeListUpdate:vector ETV
vector 840 FloodSubNetwork.nodes[480].connectionManager activeListUpdate:vector ETV
vector 841 FloodSubNetwork.nodes[412].connectionManager activeListUpdate:vector ETV
vector 842 FloodSubNetwork.nodes[88].connectionManager activeListUpdate:vector ETV
vector 843 FloodSubNetwork.nodes[225].connectionManager activeListUpdate:vector ETV
vector 844 FloodSubNetwork.nodes[56].connectionManager activeListUpdate:vector ETV
vector 845 FloodSubNetwork.nodes[377].connectionManager activeListUpdate:vector ETV
vector 846 FloodSubNetwork.nodes[282].connectionManager activeListUpdate:vector ETV
vector 847 FloodSubNetwork.nodes[67].connectionManager activeListUpdate:vector ETV
vector 848 FloodSubNetwork.nodes[112].connectionManager activeListUpdate:vector ETV
vector 849 FloodSubNetwork.nodes[62].connectionManager activeListUpdate:vector ETV
vector 850 FloodSubNetwork.nodes[109].connectionManager activeListUpdate:vector ETV
vector 851 FloodSubNetwork.nodes[329].connectionManager activeListUpdate:vector ETV
vector 852 FloodSubNetwork.nodes[73].connectionManager activeListUpdate:vector ETV
vector 853 FloodSubNetwork.nodes[139].connectionManager activeListUpdate:vector ETV
vector 854 FloodSubNetwork.nodes[343].connectionManager activeListUpdate:vector ETV
vector 855 FloodSubNetwork.nodes[23].connectionManager activeListUpdate:vector ETV
vector 856 FloodSubNetwork.nodes[11].connectionManager activeListUpdate:vector ETV
vector 857 FloodSubNetwork.nodes[293].connectionManager activeListUpdate:vector ETV
vector 858 FloodSubNetwork.nodes[417].connectionManager activeListUpdate:vector ETV
vector 859 FloodSubNetwork.nodes[321].connectionManager activeListUpdate:vector ETV
vector 860 FloodSubNetwork.nodes[415].connectionManager activeListUpdate:vector ETV
vector 861 FloodSubNetwork.nodes[324].connectionManager activeListUpdate:vector ETV
vector 862 FloodSubNetwork.nodes[413].connectionManager activeListUpdate:vector ETV
vector 863 FloodSubNetwork.nodes[259].connectionManager activeListUpdate:vector ETV
vector 864 FloodSubNetwork.nodes[370].connectionManager activeListUpdate:vector ETV
vector 865 FloodSubNetwork.nodes[218].connectionManager activeListUpdate:vector ETV
vector 866 FloodSubNetwork.nodes[360].connectionManager activeListUpdate:vector ETV
vector 867 FloodSubNetwork.nodes[223].connectionManager activeListUpdate:vector ETV
vector 868 FloodSubNetwork.nodes[81].connectionManager activeListUpdate:vector ETV
vector 869 FloodSubNetwork.nodes[476].connectionManager activeListUpdate:vector ETV
vector 870 FloodSubNetwork.nodes[3].connectionManager activeListUpdate:vector ETV
vector 871 FloodSubNetwork.nodes[151].connectionManager activeListUpdate:vector ETV
vector 872 FloodSubNetwork.nodes[86].connectionManager activeListUpdate:vector ETV
vector 873 FloodSubNetwork.nodes[490].connectionManager activeListUpdate:vector ETV
vector 874 FloodSubNetwork.nodes[188].connectionManager activeListUpdate:vector ETV
vector 875 FloodSubNetwork.nodes[192].connectionManager activeListUpdate:vector ETV
vector 876 FloodSubNetwork.nodes[286].connectionManager activeListUpdate:vector ETV
vector 877 FloodSubNetwork.nodes[167].connectionManager activeListUpdate:vector ETV
vector 878 FloodSubNetwork.nodes[497].connectionManager activeListUpdate:vector ETV
vector 879 FloodSubNetwork.nodes[471].connectionManager activeListUpdate:vector ETV
vector 880 FloodSubNetwork.nodes[244].connectionManager activeListUpdate:vector ETV
vector 881 FloodSubNetwork.nodes[115].connectionManager activeListUpdate:vector ETV
vector 882 FloodSubNetwork.nodes[37].connectionManager activeListUpdate:vector ETV
vector 883 FloodSubNetwork.nodes[345].connectionManager activeListUpdate:vector ETV
vector 884 FloodSubNetwork.nodes[451].connectionManager activeListUpdate:vector ETV
vector 885 FloodSubNetwork.nodes[398].connectionManager activeListUpdate:vector ETV
vector 886 FloodSubNetwork.nodes[359].connectionManager activeListUpdate:vector ETV
vector 887 FloodSubNetwork.nodes[484].connectionManager activeListUpdate:vector ETV
vector 888 FloodSubNetwork.nodes[275].connectionManager activeListUpdate:vector ETV
vector 889 FloodSubNetwork.nodes[368].connectionManager activeListUpdate:vector ETV
vector 890 FloodSubNetwork.nodes[108].connectionManager activeListUpdate:vector ETV
vector 891 FloodSubNetwork.nodes[354].connectionManager activeListUpdate:vector ETV
vector 892 FloodSubNetwork.nodes[327].connectionManager activeListUpdate:vector ETV
vector 893 FloodSubNetwork.nodes[446].connectionManager activeListUpdate:vector ETV
vector 894 FloodSubNetwork.nodes[440].connectionManager activeListUpdate:vector ETV
vector 895 FloodSubNetwork.nodes[8].connectionManager activeListUpdate:vector ETV
vector 896 FloodSubNetwork.nodes[61].connectionManager activeListUpdate:vector ETV
vector 897 FloodSubNetwork.nodes[209].connectionManager activeListUpdate:vector ETV
vector 898 FloodSubNetwork.nodes[430].connectionManager activeListUpdate:vector ETV
vector 899 FloodSubNetwork.nodes[76].connectionManager activeListUpdate:vector ETV
vector 900 FloodSubNetwork.nodes[302].connectionManager activeListUpdate:vector ETV
vector 901 FloodSubNetwork.nodes[131].connectionManager activeListUpdate:vector ETV
vector 902 FloodSubNetwork.nodes[198].connectionManager activeListUpdate:vector ETV
vector 903 FloodSubNetwork.nodes[93].connectionManager activeListUpdate:vector ETV
vector 904 FloodSubNetwork.nodes[305].connectionManager activeListUpdate:vector ETV
vector 905 FloodSubNetwork.nodes[168].connectionManager activeListUpdate:vector ETV
vector 906 FloodSubNetwork.nodes[454].connectionManager activeListUpdate:vector ETV
vector 907 FloodSubNetwork.nodes[464].connectionManager activeListUpdate:vector ETV
vector 908 FloodSubNetwork.nodes[311].connectionManager activeListUpdate:vector ETV
vector 909 FloodSubNetwork.nodes[356].connectionManager activeListUpdate:vector ETV
vector 910 FloodSubNetwork.nodes[285].connectionManager activeListUpdate:vector ETV
vector 911 FloodSubNetwork.nodes[498].connectionManager activeListUpdate:vector ETV
vector 912 FloodSubNetwork.nodes[39].connectionManager activeListUpdate:vector ETV
vector 913 FloodSubNetwork.nodes[136].connectionManager activeListUpdate:vector ETV
vector 914 FloodSubNetwork.nodes[452].connectionManager activeListUpdate:vector ETV
vector 915 FloodSubNetwork.nodes[32].connectionManager activeListUpdate:vector ETV
vector 916 FloodSubNetwork.nodes[199].connectionManager activeListUpdate:vector ETV
vector 917 FloodSubNetwork.nodes[491].connectionManager activeListUpdate:vector ETV
vector 918 FloodSubNetwork.nodes[226].connectionManager activeListUpdate:vector ETV
vector 919 FloodSubNetwork.nodes[9].connectionManager activeListUpdate:vector ETV
vector 920 FloodSubNetwork.nodes[382].connectionManager activeListUpdate:vector ETV
vector 921 FloodSubNetwork.nodes[234].connectionManager activeListUpdate:vector ETV
vector 922 FloodSubNetwork.nodes[162].connectionManager activeListUpdate:vector ETV
vector 923 FloodSubNetwork.nodes[78].connectionManager activeListUpdate:vector ETV
vector 924 FloodSubNetwork.nodes[126].connectionManager activeListUpdate:vector ETV
vector 925 FloodSubNetwork.nodes[274].connectionManager activeListUpdate:vector ETV
vector 926 FloodSubNetwork.nodes[70].connectionManager activeListUpdate:vector ETV
vector 927 FloodSubNetwork.nodes[203].connectionManager activeListUpdate:vector ETV
vector 928 FloodSubNetwork.nodes[333].connectionManager activeListUpdate:vector ETV
vector 929 FloodSubNetwork.nodes[232].connectionManager activeListUpdate:vector ETV
vector 930 FloodSubNetwork.nodes[308].connectionManager activeListUpdate:vector ETV
vector 931 FloodSubNetwork.nodes[334].connectionManager activeListUpdate:vector ETV
vector 932 FloodSubNetwork.nodes[80].connectionManager activeListUpdate:vector ETV
[...]
736	9985536 281 30466 144915 0.931923714039 16.352231340136 10 1 10 55 385
737	9985817 288 30565 21993455 0.934325891859 115.705833939054 10 1 10 55 385
738	9986105 343 30613 4502127 0.935359221512 41.521354985052 12 1 11 76 606
739	9986448 269 30647 104212 0.936088126543 9.4834478737 10 1 10 55 385
740	9986717 272 30760 104003 0.938707756565 9.453071007783 10 1 10 55 385
741	9986989 278 30838 920669 0.940446767488 24.295291736211 10 1 10 55 385
742	9987267 279 31067 3094639 0.944561683178 34.893237170231 10 1 10 55 385
743	9987546 284 31072 15252580 0.944635743932 88.539979946863 10 1 10 55 385
744	9987830 278 31186 201072 0.946718838548 20.728844096362 10 1 10 55 385
745	9988108 282 31202 11230557 0.946927719592 70.854867907587 10 1 10 55 385
746	9988390 278 31312 153413 0.948627823654 17.877839271126 10 1 10 55 385
747	9988668 276 31402 487574 0.950327130193 21.860489041711 10 1 10 55 385
748	9988944 269 31429 97890 0.951045553841 8.491977060726 10 1 10 55 385
749	9989213 296 31659 72676535 0.956041583469 349.591231579837 10 1 10 55 385
750	9989509 270 31739 75751 0.957318585617 5.175972003008 10 1 10 55 385
751	9989779 271 31859 110550 0.95851148383 10.50316056712 10 1 10 55 385
752	9990050 272 31969 122849 0.960563031942 12.52386014447 10 1 10 55 385
753	9990322 279 32039 159080 0.962491414968 18.882435261821 10 1 10 55 385
754	9990601 280 32067 340231 0.963106710923 21.294520351861 10 1 10 55 385
755	9990881 277 32180 723015 0.964973596902 23.513855583579 10 1 10 55 385
756	9991158 260 32209 40490488 0.965503109573 197.498203143161 9 1 9 45 285
757	9991418 280 32257 2938381 0.966173512112 33.969749153492 10 1 10 55 385
758	9991698 270 32294 99271 0.966733297204 8.705142774299 10 1 10 55 385
759	9991968 279 32405 4154024 0.968980844776 40.029049728709 10 1 10 55 385
760	9992247 281 32516 2908465 0.971498312289 33.722257825867 10 1 10 55 385
761	9992528 273 32548 115940 0.972027964285 11.375851330553 10 1 10 55 385
762	9992801 276 32570 992133 0.972386628702 24.551536403691 10 1 10 55 385
763	9993077 275 32641 127649 0.974431886726 13.32346501058 10 1 10 55 385
764	9993352 284 32646 2911730 0.974475630218 33.740757673891 10 1 10 55 385
765	9993636 280 32676 1936942 0.975010670285 29.682306710307 10 1 10 55 385
766	9993916 271 32682 146374 0.975057865374 16.598061960896 10 1 10 55 385
767	9994187 272 32734 116591 0.976298751093 11.479548142741 10 1 10 55 385
768	9994459 295 32770 39439946 0.977067343689 193.375058745437 10 1 10 55 385
769	9994754 274 32811 154790 0.977826458801 18.130278666001 10 1 10 55 385
770	9995028 289 32908 13846352 0.980403352196 82.544873350224 10 1 10 55 385
771	9995317 285 32946 2780370 0.981234991048 33.209381682571 10 1 10 55 385
772	9995602 284 32951 6385229 0.981284662379 49.891480638933 10 1 10 55 385
773	9995886 282 32980 210045 0.982224168298 20.785468336692 10 1 10 55 385
774	9996168 291 33005 23026128 0.982970819246 119.491781963079 10 1 10 55 385
775	9996459 282 33033 5619636 0.983726476464 46.393212687013 10 1 10 55 385
776	9996741 272 33046 116622 0.983982439676 11.485715627579 10 1 10 55 385
777	9997013 270 33172 93272 0.98704030212 7.772545911265 10 1 10 55 385
778	9997283 276 33180 113215 0.987143005306 10.916957879361 10 1 10 55 385
779	9997559 279 33195 2410338 0.987368365672 31.475971442942 10 1 10 55 385
780	9997838 277 33254 130166 0.988107359122 13.767422859645 10 1 10 55 385
781	9998115 274 33275 136595 0.988545975958 14.861213910475 10 1 10 55 385
782	9998389 276 33280 2857927 0.988620681257 33.496099310984 10 1 10 55 385
783	9998665 285 33377 15822976 0.990313702416 91.095147985388 10 1 10 55 385
784	9998950 272 33449 101916 0.992690283545 9.116398935742 10 1 10 55 385
785	9999222 281 33464 154209 0.992807331989 18.025158771734 10 1 10 55 385
786	9999503 270 33480 99777 0.993054717674 8.777288372628 10 1 10 55 385
787	9999773 269 33486 86761 0.99316038743 6.794410117914 10 1 10 55 385
788	10000042 269 33571 88466 0.995550436105 7.036702886994 10 1 10 55 385
789	10000311 276 33591 146995 0.996159505619 16.701630156259 10 1 10 55 385
790	10000587 272 33605 121546 0.99637968457 12.310679662187 10 1 10 55 385
791	10000859 279 33616 142733 0.996491861634 15.967785340605 10 1 10 55 385
792	10001138 279 33665 147883 0.997316646368 16.860885486532 10 1 10 55 385
793	10001417 276 33704 154500 0.998101327574 18.077379687434 10 1 10 55 385
794	10001693 24138 33793 113548420 0.999590493144 599.266378543676 788 1 487 219782 74822022
795	10025831 273 33806 11608319 1.000063029469 72.370922115665 10 1 10 55 385
796	10026104 271 33873 103090 1.002325419876 9.307132632913 10 1 10 55 385
797	10026375 270 33880 98162 1.002612826282 8.532595393634 10 1 10 55 385
798	10026645 270 33913 79890 1.003438609766 5.785380610768 10 1 10 55 385
799	10026915 281 33957 3616083 1.00461459477 37.709658257102 10 1 10 55 385
800	10027196 280 33993 1177918 1.005110541188 25.849873098026 10 1 10 55 385
801	10027476 285 34053 35029000 1.006585000177 172.275273139937 10 1 10 55 385
802	10027761 266 34108 91123 1.00784678129 7.444620724219 10 1 10 55 385
803	10028027 271 34113 112945 1.007954714262 10.8773523174 10 1 10 55 385
804	10028298 277 34184 153701 1.008893229818 17.934632192316 10 1 10 55 385
805	10028575 337 34257 124934 1.010534322452 12.861942546074 12 1 11 76 606
806	10028912 276 34295 664204 1.011700871295 23.226966618105 10 1 10 55 385
807	10029188 282 34375 1831453 1.013619895424 28.953624213906 10 1 10 55 385
808	10029470 278 34492 135158 1.017134063111 14.625631926283 10 1 10 55 385
809	10029748 298 34515 31824491 1.017894908636 158.390205771132 10 1 10 55 385
810	10030046 270 34537 82005 1.018282529359 6.10348295039 10 1 10 55 385
811	10030316 279 34550 548844 1.018524111608 22.302900915202 10 1 10 55 385
812	10030595 275 34831 122566 1.023600681711 12.482087668619 10 1 10 55 385
813	10030870 270 34856 86866 1.024059852557 6.807508089696 10 1 10 55 385
814	10031140 269 34869 96625 1.024342873168 8.303313818827 10 1 10 55 385
815	10031409 281 34967 2840379 1.026581834386 33.432028854949 10 1 10 55 385
816	10031690 276 34972 135320 1.026618521338 14.650173701552 10 1 10 55 385
817	10031966 275 35016 163331 1.028108832561 19.672398215795 10 1 10 55 385
818	10032241 277 35025 128948 1.028362988532 13.555968852831 10 1 10 55 385
819	10032518 282 35030 10858953 1.028415142396 68.396959590307 10 1 10 55 385
820	10032800 283 35073 1170862 1.02933449792 25.705977131483 10 1 10 55 385
821	10033083 272 35125 123021 1.030090871441 12.555936604538 10 1 10 55 385
822	10033355 279 35140 5398578 1.03059574354 45.223712124234 10 1 10 55 385
823	10033634 268 35237 94989 1.033072664617 8.048380845485 10 1 10 55 385
824	10033902 282 35367 423124 1.036137883385 21.581084603177 10 1 10 55 385
825	10034184 271 35377 88909 1.036550165497 7.098209507179 10 1 10 55 385
826	10034455 284 35493 3789533 1.039771930406 38.277100431389 10 1 10 55 385
827	10034739 274 35524 140305 1.04014869428 15.517862368233 10 1 10 55 385
828	10035013 335 35538 1014096 1.040318028078 24.63283475303 12 1 11 76 606
829	10035348 285 35652 12704217 1.042938419006 76.971501781915 10 1 10 55 385
830	10035633 271 35728 100360 1.044165321039 8.876432371228 10 1 10 55 385
831	10035904 270 35754 90408 1.044490326585 7.331820784301 10 1 10 55 385
832	10036174 278 35771 1185120 1.044650997719 25.945498639134 10 1 10 55 385
833	10036452 278 35858 6894526 1.047524661007 52.230061697006 10 1 10 55 385
834	10036730 271 35930 101269 1.04946790084 9.014308695276 10 1 10 55 385
835	10037001 279 36080 546645 1.052503911644 22.282054299256 10 1 10 55 385
836	10037280 281 36109 9618075 1.053035701621 62.32570188837 10 1 10 55 385
837	10037561 269 36130 102867 1.053353791338 9.27070938649 10 1 10 55 385
838	10037830 270 36168 86515 1.053899514493 6.761339618042 10 1 10 55 385
839	10038100 281 36174 10049157 1.054126508336 64.257494817395 10 1 10 55 385
840	10038381 283 36183 1332062 1.054497664542 26.925184141779 10 1 10 55 385
841	10038664 280 36390 132280 1.060717273718 14.144355485157 10 1 10 55 385
842	10038944 334 36423 151142 1.06151368933 17.444211486245 12 1 11 76 606
843	10039278 274 36431 108203 1.061635814302 10.138704157734 10 1 10 55 385
844	10039552 276 36485 146590 1.063281434988 16.63368880088 10 1 10 55 385
845	10039828 270 36508 89790 1.063799073846 7.237259436056 10 1 10 55 385
846	10040098 280 36554 574366 1.064553103527 22.563676394929 10 1 10 55 385
847	10040378 288 36602 19000764 1.06591998894 103.839182086693 10 1 10 55 385
848	10040666 270 36608 97213 1.066024243588 8.394699458835 10 1 10 55 385
849	10040936 276 36628 164449 1.066516540582 19.881345578603 10 1 10 55 385
850	10041212 275 36634 121247 1.067118401606 12.261825017226 10 1 10 55 385
851	10041487 332 36732 165951 1.069472832653 20.162841976668 12 1 11 76 606
852	10041819 275 36737 119449 1.069478212452 11.962608024156 10 1 10 55 385
853	10042094 286 36755 2978949 1.069789930506 34.316114809167 10 1 10 55 385
854	10042380 272 36829 106501 1.071242083267 9.856399528905 10 1 10 55 385
855	10042652 283 36904 10812158 1.072924928733 68.093869047818 10 1 10 55 385
856	10042935 277 36921 7791892 1.073330392429 54.937784579071 10 1 10 55 385
857	10043212 280 36926 247567 1.073387738317 20.973667570222 10 1 10 55 385
858	10043492 274 36939 121086 1.073747731673 12.230026670466 10 1 10 55 385
859	10043766 286 36966 26747870 1.074750444194 135.227568162232 10 1 10 55 385
860	10044052 267 37051 117531 1.076921266678 11.64230467304 10 1 10 55 385
861	10044319 290 37056 11833482 1.076929228518 73.737624571668 10 1 10 55 385
862	10044609 274 37070 129386 1.077382479754 13.637426457426 10 1 10 55 385
863	10044883 285 37117 1115616 1.07840959417 25.054556416689 10 1 10 55 385
864	10045168 280 37127 150611 1.078472820996 17.344321655815 10 1 10 55 385
865	10045448 274 37166 123934 1.079414665096 12.694444202896 10 1 10 55 385
866	10045722 279 37262 4158849 1.082228720429 40.053749097941 10 1 10 55 385
867	10046001 270 37274 89246 1.082413615065 7.163155336578 10 1 10 55 385
868	10046271 270 37297 97579 1.082943736968 8.442067785708 10 1 10 55 385
869	10046541 281 37302 4143092 1.083108617604 39.978171312837 10 1 10 55 385
870	10046822 276 37311 126284 1.083224671845 13.090832728182 10 1 10 55 385
871	10047098 276 37325 127713 1.083450596284 13.335040541086 10 1 10 55 385
872	10047374 271 37452 109808 1.085965050123 10.382262909416 10 1 10 55 385
873	10047645 280 37535 2130895 1.08806171947 30.545830350056 10 1 10 55 385
874	10047925 279 37618 1112672 1.089365761837 25.036217875489 10 1 10 55 385
875	10048204 288 37655 17808217 1.090899291583 98.984028875902 10 1 10 55 385
876	10048492 281 37770 1826981 1.093223868344 28.930319785622 10 1 10 55 385
877	10048773 269 37797 96270 1.093599889756 8.252464658397 10 1 10 55 385
878	10049042 269 37802 83445 1.093600253032 6.314020956273 10 1 10 55 385
879	10049311 272 37826 102253 1.094598136567 9.176995720554 10 1 10 55 385
880	10049583 275 37874 1267036 1.095722510759 26.428106005902 10 1 10 55 385
881	10049858 279 37905 2739678 1.096248096696 33.061541880225 10 1 10 55 385
882	10050137 290 37964 16059615 1.097579333255 92.473359519 10 1 10 55 385
883	10050427 268 38079 85885 1.10019833599 6.657941206489 10 1 10 55 385
884	10050695 294 38133 17382137 1.101462661146 96.953987329877 10 1 10 55 385
885	10050989 279 38149 145821 1.102453211388 16.496367194204 10 1 10 55 385
886	10051268 271 38186 145141 1.103087736137 16.392127343472 10 1 10 55 385
887	10051539 286 38269 2765350 1.104811560224 33.154478150948 10 1 10 55 385
888	10051825 271 38294 111578 1.105354364622 10.659742015046 10 1 10 55 385
889	10052096 276 38317 236021 1.105595668576 20.923343570104 10 1 10 55 385
890	10052372 272 38364 110075 1.106927862286 10.427770565291 10 1 10 55 385
891	10052644 280 38439 1850376 1.109393213618 29.064175221507 10 1 10 55 385
892	10052924 271 38628 90111 1.113076017204 7.285373429607 10 1 10 55 385
893	10053195 276 38711 131187 1.11454480092 13.954552710657 10 1 10 55 385
894	10053471 272 38752 126478 1.115803296833 13.120255535749 10 1 10 55 385
895	10053743 280 38833 138439 1.118051477864 15.189096731814 10 1 10 55 385
896	10054023 277 38853 302129 1.118499369807 21.170015817305 10 1 10 55 385
897	10054300 335 38873 366633 1.119089071047 21.377818489787 12 1 11 76 606
898	10054635 279 38952 693168 1.120556888782 23.375710210363 10 1 10 55 385
899	10054914 272 38990 107094 1.121613277459 9.948887637129 10 1 10 55 385
900	10055186 283 39167 1103001 1.126447492295 24.985470221002 10 1 10 55 385
901	10055469 280 39177 736540 1.126498945651 23.583666541211 10 1 10 55 385
902	10055749 287 39196 13925208 1.12685769382 83.030742861007 10 1 10 55 385
903	10056036 281 39280 142677 1.128585674572 15.957637728837 10 1 10 55 385
904	10056317 283 39295 19482338 1.128838381912 105.765809633231 10 1 10 55 385
905	10056600 272 39307 116361 1.12904269212 11.436753159957 10 1 10 55 385
906	10056872 279 39538 166285 1.134235014069 20.227250906082 10 1 10 55 385
907	10057151 280 39784 164572 1.140833474077 19.901301089457 10 1 10 55 385
908	10057431 269 39823 89855 1.141628482973 7.247651381643 10 1 10 55 385
909	10057700 270 39830 91827 1.141727980791 7.550350656549 10 1 10 55 385
910	10057970 270 39877 87089 1.142384087629 6.842284226491 10 1 10 55 385
911	10058240 270 39885 89321 1.142486649548 7.174001113401 10 1 10 55 385
912	10058510 274 39973 143159 1.143786390188 16.047411876774 10 1 10 55 385
913	10058784 275 40088 121987 1.146078871419 12.385761790861 10 1 10 55 385
914	10059059 275 40161 139912 1.148219999724 15.449617964647 10 1 10 55 385
915	10059334 286 40238 13960965 1.150262750318 83.265599120715 10 1 10 55 385
916	10059620 274 40315 114452 1.152193659933 11.128073214102 10 1 10 55 385
917	10059894 270 40347 85289 1.152575051525 6.576745746865 10 1 10 55 385
918	10060164 271 40394 148386 1.1532804978 16.948513791542 10 1 10 55 385
919	10060435 270 40447 105654 1.154375013789 9.71825175486 10 1 10 55 385
920	10060705 284 40483 9948834 1.155212002913 63.557817391313 10 1 10 55 385
921	10060989 269 40492 92034 1.15551725807 7.580582464145 10 1 10 55 385
922	10061258 284 40532 1572293 1.156290843796 28.180416292696 10 1 10 55 385
923	10061542 275 40559 128619 1.156712948222 13.496587024568 10 1 10 55 385
924	10061817 276 40597 142885 1.157724389229 15.997520533474 10 1 10 55 385
925	10062093 271 40734 121328 1.161769785432 12.273716166519 10 1 10 55 385
926	10062364 277 40788 615289 1.162873400153 22.871281169122 10 1 10 55 385
927	10062641 278 40888 147413 1.164991379624 16.777987167137 10 1 10 55 385
928	10062919 270 40959 82430 1.166833809402 6.166709191154 10 1 10 55 385
929	10063189 268 41129 92687 1.171427123498 7.685509455915 10 1 10 55 385
930	10063457 287 41175 8994529 1.17254583279 58.806622114188 10 1 10 55 385
931	10063744 281 41216 1523864 1.172992933384 28.008746665718 10 1 10 55 385
932	10064025 268 41247 76970 1.174037697455 5.341425403377 10 1 10 55 385
933	10064293 271 41332 89123 1.176182914104 7.141096932096 10 1 10 55 385
934	10064564 328 41406 107628 1.178357890281 10.042572082426 12 1 11 76 606
935	10064892 270 41477 82459 1.180451908121 6.171495071628 10 1 10 55 385
936	10065162 280 41495 4972724 1.181208807635 43.272989707546 10 1 10 55 385
937	10065442 276 41553 151811 1.183042559152 17.568330761038 10 1 10 55 385
938	10065718 278 41559 526392 1.183122986309 22.095170617909 10 1 10 55 385
939	10065996 274 41722 125845 1.186744888114 13.012674954539 10 1 10 55 385
940	10066270 272 41746 126785 1.187359897106 13.175016637597 10 1 10 55 385
941	10066542 275 41789 112023 1.188492748009 10.723631800888 10 1 10 55 385
942	10066817 271 41849 99962 1.190099169959 8.808249560792 10 1 10 55 385
943	10067088 271 41870 78946 1.190931809462 5.641365252989 10 1 10 55 385
944	10067359 274 42020 128541 1.196277916838 13.48051582333 10 1 10 55 385
945	10067633 280 42233 870491 1.201952451001 24.144798052054 10 1 10 55 385
946	10067913 269 42308 89559 1.2036425462 7.206681500737 10 1 10 55 385
947	10068182 281 42339 165524 1.204200941003 20.090781948285 10 1 10 55 385
948	10068463 270 42392 99105 1.205553949127 8.681349983529 10 1 10 55 385
949	10068733 267 42513 87359 1.20867729777 6.87479128454 10 1 10 55 385
950	10069000 281 42559 166848 1.210105666972 20.29297381565 10 1 10 55 385
951	10069281 280 42627 1065000 1.212109055559 24.825689850999 10 1 10 55 385
952	10069561 276 42714 125728 1.214562638407 12.991532839739 10 1 10 55 385
953	10069837 271 42733 102742 1.21478712577 9.248993547696 10 1 10 55 385
954	10070108 282 42785 5890983 1.215960783318 47.786786613013 10 1 10 55 385
955	10070390 275 42803 292957 1.216650641725 21.138337563705 10 1 10 55 385
956	10070665 267 43018 99432 1.22411308706 8.726840453126 10 1 10 55 385
957	10070932 275 43044 157568 1.224641071857 18.623238862664 10 1 10 55 385
958	10071207 284 43194 6629216 1.228250976159 50.887122229267 10 1 10 55 385
959	10071491 269 43244 94197 1.229148029014 7.923165092925 10 1 10 55 385
960	10071760 275 43295 116298 1.230007408159 11.425614269711 10 1 10 55 385
961	10072035 271 43315 107918 1.230554951892 10.095349695888 10 1 10 55 385
962	10072306 273 43409 122774 1.233191081099 12.508845535279 10 1 10 55 385
963	10072579 271 43440 104870 1.234117047198 9.582106082149 10 1 10 55 385
964	10072850 282 43592 10913377 1.238659867307 69.187198232863 10 1 10 55 385
965	10073132 268 43740 86190 1.242909079862 6.706520080277 10 1 10 55 385
966	10073400 269 43804 76369 1.24486297543 5.256411312142 10 1 10 55 385
967	10073669 271 43938 69919 1.247889145556 4.353067469406 10 1 10 55 385
968	10073940 280 44012 9360190 1.249814441604 61.008641235963 10 1 10 55 385
969	10074220 270 44035 83230 1.250579615333 6.290609813328 10 1 10 55 385
970	10074490 271 44092 92682 1.252067213382 7.685467525414 10 1 10 55 385
971	10074761 268 44134 70368 1.25316838242 4.418240371182 10 1 10 55 385
972	10075029 271 44205 76623 1.255099282058 5.293468620911 10 1 10 55 385
973	10075300 330 44244 113761 1.256388492436 11.012007490286 12 1 11 76 606
974	10075630 324 44345 95141 1.259568958942 8.071541065749 12 1 11 76 606
975	10075954 269 44414 93693 1.261318187875 7.84316885789 10 1 10 55 385
976	10076223 270 44455 99199 1.262867198346 8.690597460311 10 1 10 55 385
977	10076493 269 44512 97563 1.264572938336 8.439947273685 10 1 10 55 385
978	10076762 270 44539 90919 1.26524117151 7.406636219137 10 1 10 55 385
979	10077032 276 44646 141730 1.268643614029 15.785726566332 10 1 10 55 385
980	10077308 268 44685 77759 1.269379997849 5.462753406978 10 1 10 55 385
981	10077576 268 44744 82482 1.270333349237 6.175470033273 10 1 10 55 385
982	10077844 271 44762 96115 1.270751358433 8.221198240053 10 1 10 55 385
983	10078115 274 44779 127894 1.271252345521 13.372358254434 10 1 10 55 385
984	10078389 277 45070 133186 1.280993836086 14.297573107737 10 1 10 55 385
985	10078666 271 45140 101031 1.282993430694 8.975118815545 10 1 10 55 385
986	10078937 271 45514 89948 1.296580999516 7.261447436891 10 1 10 55 385
987	10079208 270 45607 86246 1.298831198873 6.713028051125 10 1 10 55 385
988	10079478 272 45671 127295 1.30126282733 13.259960248731 10 1 10 55 385
989	10079750 403 45711 81483 1.30232996084 6.028462048611 15 1 10 70 438
990	10080153 269 46073 80738 1.317615996842 5.90521491624 10 1 10 55 385
991	10080422 271 46147 93828 1.321042339684 7.859528244712 10 1 10 55 385
992	10080693 270 46306 87023 1.327947788227 6.830727277884 10 1 10 55 385
993	10080963 270 46357 86841 1.329108935857 6.80542264689 10 1 10 55 385
994	10081233 270 46363 93110 1.329203613439 7.743203327357 10 1 10 55 385
995	10081503 273 46796 145571 1.346134996696 16.458020091739 10 1 10 55 385
996	10081776 271 47040 87847 1.357884064294 6.948367494631 10 1 10 55 385
997	10082047 270 47516 74989 1.375764794508 5.055625136141 10 1 10 55 385
998	10082317 271 47920 66461 1.393706998059 3.847542987587 10 1 10 55 385
999	10082588 271 48255 75868 1.408950171887 5.192637169191 10 1 10 55 385

